* NGSPICE file created from user_project_wrapper.ext - technology: gf180mcuC

* Black-box entry subcircuit for gf180mcu_fd_sc_mcu7t5v0__inv_4 abstract view
.subckt gf180mcu_fd_sc_mcu7t5v0__inv_4 I ZN VDD VSS
.ends

* Black-box entry subcircuit for gf180mcu_fd_sc_mcu7t5v0__dffq_4 abstract view
.subckt gf180mcu_fd_sc_mcu7t5v0__dffq_4 D CLK Q VDD VSS
.ends

* Black-box entry subcircuit for gf180mcu_fd_sc_mcu7t5v0__oai22_2 abstract view
.subckt gf180mcu_fd_sc_mcu7t5v0__oai22_2 A1 A2 B1 B2 ZN VDD VSS
.ends

* Black-box entry subcircuit for gf180mcu_fd_sc_mcu7t5v0__aoi221_4 abstract view
.subckt gf180mcu_fd_sc_mcu7t5v0__aoi221_4 A1 A2 B1 B2 C ZN VDD VSS
.ends

* Black-box entry subcircuit for gf180mcu_fd_sc_mcu7t5v0__xnor3_4 abstract view
.subckt gf180mcu_fd_sc_mcu7t5v0__xnor3_4 A1 A2 A3 ZN VDD VSS
.ends

* Black-box entry subcircuit for gf180mcu_fd_sc_mcu7t5v0__nand2_1 abstract view
.subckt gf180mcu_fd_sc_mcu7t5v0__nand2_1 A1 A2 ZN VDD VSS
.ends

* Black-box entry subcircuit for gf180mcu_fd_sc_mcu7t5v0__xor2_2 abstract view
.subckt gf180mcu_fd_sc_mcu7t5v0__xor2_2 A1 A2 Z VDD VSS
.ends

* Black-box entry subcircuit for gf180mcu_fd_sc_mcu7t5v0__clkbuf_2 abstract view
.subckt gf180mcu_fd_sc_mcu7t5v0__clkbuf_2 I Z VDD VSS
.ends

* Black-box entry subcircuit for gf180mcu_fd_sc_mcu7t5v0__nand2_4 abstract view
.subckt gf180mcu_fd_sc_mcu7t5v0__nand2_4 A1 A2 ZN VDD VSS
.ends

* Black-box entry subcircuit for gf180mcu_fd_sc_mcu7t5v0__nor2_4 abstract view
.subckt gf180mcu_fd_sc_mcu7t5v0__nor2_4 A1 A2 ZN VDD VSS
.ends

* Black-box entry subcircuit for gf180mcu_fd_sc_mcu7t5v0__oai21_4 abstract view
.subckt gf180mcu_fd_sc_mcu7t5v0__oai21_4 A1 A2 B ZN VDD VSS
.ends

* Black-box entry subcircuit for gf180mcu_fd_sc_mcu7t5v0__inv_1 abstract view
.subckt gf180mcu_fd_sc_mcu7t5v0__inv_1 I ZN VDD VSS
.ends

* Black-box entry subcircuit for gf180mcu_fd_sc_mcu7t5v0__nor2_1 abstract view
.subckt gf180mcu_fd_sc_mcu7t5v0__nor2_1 A1 A2 ZN VDD VSS
.ends

* Black-box entry subcircuit for gf180mcu_fd_sc_mcu7t5v0__aoi21_4 abstract view
.subckt gf180mcu_fd_sc_mcu7t5v0__aoi21_4 A1 A2 B ZN VDD VSS
.ends

* Black-box entry subcircuit for gf180mcu_fd_sc_mcu7t5v0__nor3_4 abstract view
.subckt gf180mcu_fd_sc_mcu7t5v0__nor3_4 A1 A2 A3 ZN VDD VSS
.ends

* Black-box entry subcircuit for gf180mcu_fd_sc_mcu7t5v0__or2_4 abstract view
.subckt gf180mcu_fd_sc_mcu7t5v0__or2_4 A1 A2 Z VDD VSS
.ends

* Black-box entry subcircuit for gf180mcu_fd_sc_mcu7t5v0__tiel abstract view
.subckt gf180mcu_fd_sc_mcu7t5v0__tiel ZN VDD VSS
.ends

* Black-box entry subcircuit for gf180mcu_fd_sc_mcu7t5v0__clkbuf_3 abstract view
.subckt gf180mcu_fd_sc_mcu7t5v0__clkbuf_3 I Z VDD VSS
.ends

* Black-box entry subcircuit for gf180mcu_fd_sc_mcu7t5v0__mux2_2 abstract view
.subckt gf180mcu_fd_sc_mcu7t5v0__mux2_2 I0 I1 S Z VDD VSS
.ends

* Black-box entry subcircuit for gf180mcu_fd_sc_mcu7t5v0__aoi21_2 abstract view
.subckt gf180mcu_fd_sc_mcu7t5v0__aoi21_2 A1 A2 B ZN VDD VSS
.ends

* Black-box entry subcircuit for gf180mcu_fd_sc_mcu7t5v0__clkbuf_12 abstract view
.subckt gf180mcu_fd_sc_mcu7t5v0__clkbuf_12 I Z VDD VSS
.ends

* Black-box entry subcircuit for gf180mcu_fd_sc_mcu7t5v0__buf_12 abstract view
.subckt gf180mcu_fd_sc_mcu7t5v0__buf_12 I Z VDD VSS
.ends

* Black-box entry subcircuit for gf180mcu_fd_sc_mcu7t5v0__and3_4 abstract view
.subckt gf180mcu_fd_sc_mcu7t5v0__and3_4 A1 A2 A3 Z VDD VSS
.ends

* Black-box entry subcircuit for gf180mcu_fd_sc_mcu7t5v0__xor2_4 abstract view
.subckt gf180mcu_fd_sc_mcu7t5v0__xor2_4 A1 A2 Z VDD VSS
.ends

* Black-box entry subcircuit for gf180mcu_fd_sc_mcu7t5v0__clkinv_8 abstract view
.subckt gf180mcu_fd_sc_mcu7t5v0__clkinv_8 I ZN VDD VSS
.ends

* Black-box entry subcircuit for gf180mcu_fd_sc_mcu7t5v0__xor3_2 abstract view
.subckt gf180mcu_fd_sc_mcu7t5v0__xor3_2 A1 A2 A3 Z VDD VSS
.ends

* Black-box entry subcircuit for gf180mcu_fd_sc_mcu7t5v0__and2_2 abstract view
.subckt gf180mcu_fd_sc_mcu7t5v0__and2_2 A1 A2 Z VDD VSS
.ends

* Black-box entry subcircuit for gf180mcu_fd_sc_mcu7t5v0__oai21_2 abstract view
.subckt gf180mcu_fd_sc_mcu7t5v0__oai21_2 A1 A2 B ZN VDD VSS
.ends

* Black-box entry subcircuit for gf180mcu_fd_sc_mcu7t5v0__aoi22_4 abstract view
.subckt gf180mcu_fd_sc_mcu7t5v0__aoi22_4 A1 A2 B1 B2 ZN VDD VSS
.ends

* Black-box entry subcircuit for gf180mcu_fd_sc_mcu7t5v0__oai32_4 abstract view
.subckt gf180mcu_fd_sc_mcu7t5v0__oai32_4 A1 A2 A3 B1 B2 ZN VDD VSS
.ends

* Black-box entry subcircuit for gf180mcu_fd_sc_mcu7t5v0__nand3_4 abstract view
.subckt gf180mcu_fd_sc_mcu7t5v0__nand3_4 A1 A2 A3 ZN VDD VSS
.ends

* Black-box entry subcircuit for gf180mcu_fd_sc_mcu7t5v0__nor2_2 abstract view
.subckt gf180mcu_fd_sc_mcu7t5v0__nor2_2 A1 A2 ZN VDD VSS
.ends

* Black-box entry subcircuit for gf180mcu_fd_sc_mcu7t5v0__buf_8 abstract view
.subckt gf180mcu_fd_sc_mcu7t5v0__buf_8 I Z VDD VSS
.ends

* Black-box entry subcircuit for gf180mcu_fd_sc_mcu7t5v0__oai22_4 abstract view
.subckt gf180mcu_fd_sc_mcu7t5v0__oai22_4 A1 A2 B1 B2 ZN VDD VSS
.ends

* Black-box entry subcircuit for gf180mcu_fd_sc_mcu7t5v0__and2_1 abstract view
.subckt gf180mcu_fd_sc_mcu7t5v0__and2_1 A1 A2 Z VDD VSS
.ends

* Black-box entry subcircuit for gf180mcu_fd_sc_mcu7t5v0__nand2_2 abstract view
.subckt gf180mcu_fd_sc_mcu7t5v0__nand2_2 A1 A2 ZN VDD VSS
.ends

* Black-box entry subcircuit for gf180mcu_fd_sc_mcu7t5v0__oai21_1 abstract view
.subckt gf180mcu_fd_sc_mcu7t5v0__oai21_1 A1 A2 B ZN VDD VSS
.ends

* Black-box entry subcircuit for gf180mcu_fd_sc_mcu7t5v0__xnor3_2 abstract view
.subckt gf180mcu_fd_sc_mcu7t5v0__xnor3_2 A1 A2 A3 ZN VDD VSS
.ends

* Black-box entry subcircuit for gf180mcu_fd_sc_mcu7t5v0__aoi221_1 abstract view
.subckt gf180mcu_fd_sc_mcu7t5v0__aoi221_1 A1 A2 B1 B2 C ZN VDD VSS
.ends

* Black-box entry subcircuit for gf180mcu_fd_sc_mcu7t5v0__oai211_4 abstract view
.subckt gf180mcu_fd_sc_mcu7t5v0__oai211_4 A1 A2 B C ZN VDD VSS
.ends

* Black-box entry subcircuit for gf180mcu_fd_sc_mcu7t5v0__xnor2_2 abstract view
.subckt gf180mcu_fd_sc_mcu7t5v0__xnor2_2 A1 A2 ZN VDD VSS
.ends

* Black-box entry subcircuit for gf180mcu_fd_sc_mcu7t5v0__or2_2 abstract view
.subckt gf180mcu_fd_sc_mcu7t5v0__or2_2 A1 A2 Z VDD VSS
.ends

* Black-box entry subcircuit for gf180mcu_fd_sc_mcu7t5v0__clkbuf_4 abstract view
.subckt gf180mcu_fd_sc_mcu7t5v0__clkbuf_4 I Z VDD VSS
.ends

* Black-box entry subcircuit for gf180mcu_fd_sc_mcu7t5v0__aoi221_2 abstract view
.subckt gf180mcu_fd_sc_mcu7t5v0__aoi221_2 A1 A2 B1 B2 C ZN VDD VSS
.ends

* Black-box entry subcircuit for gf180mcu_fd_sc_mcu7t5v0__clkinv_3 abstract view
.subckt gf180mcu_fd_sc_mcu7t5v0__clkinv_3 I ZN VDD VSS
.ends

* Black-box entry subcircuit for gf180mcu_fd_sc_mcu7t5v0__buf_4 abstract view
.subckt gf180mcu_fd_sc_mcu7t5v0__buf_4 I Z VDD VSS
.ends

* Black-box entry subcircuit for gf180mcu_fd_sc_mcu7t5v0__aoi21_1 abstract view
.subckt gf180mcu_fd_sc_mcu7t5v0__aoi21_1 A1 A2 B ZN VDD VSS
.ends

* Black-box entry subcircuit for gf180mcu_fd_sc_mcu7t5v0__and2_4 abstract view
.subckt gf180mcu_fd_sc_mcu7t5v0__and2_4 A1 A2 Z VDD VSS
.ends

* Black-box entry subcircuit for gf180mcu_fd_sc_mcu7t5v0__oai31_4 abstract view
.subckt gf180mcu_fd_sc_mcu7t5v0__oai31_4 A1 A2 A3 B ZN VDD VSS
.ends

* Black-box entry subcircuit for gf180mcu_fd_sc_mcu7t5v0__oai221_4 abstract view
.subckt gf180mcu_fd_sc_mcu7t5v0__oai221_4 A1 A2 B1 B2 C ZN VDD VSS
.ends

* Black-box entry subcircuit for gf180mcu_fd_sc_mcu7t5v0__clkbuf_1 abstract view
.subckt gf180mcu_fd_sc_mcu7t5v0__clkbuf_1 I Z VDD VSS
.ends

* Black-box entry subcircuit for gf180mcu_fd_sc_mcu7t5v0__buf_1 abstract view
.subckt gf180mcu_fd_sc_mcu7t5v0__buf_1 I Z VDD VSS
.ends

* Black-box entry subcircuit for gf180mcu_fd_sc_mcu7t5v0__xor3_1 abstract view
.subckt gf180mcu_fd_sc_mcu7t5v0__xor3_1 A1 A2 A3 Z VDD VSS
.ends

* Black-box entry subcircuit for gf180mcu_fd_sc_mcu7t5v0__dffq_2 abstract view
.subckt gf180mcu_fd_sc_mcu7t5v0__dffq_2 D CLK Q VDD VSS
.ends

* Black-box entry subcircuit for gf180mcu_fd_sc_mcu7t5v0__clkinv_4 abstract view
.subckt gf180mcu_fd_sc_mcu7t5v0__clkinv_4 I ZN VDD VSS
.ends

* Black-box entry subcircuit for gf180mcu_fd_sc_mcu7t5v0__xor3_4 abstract view
.subckt gf180mcu_fd_sc_mcu7t5v0__xor3_4 A1 A2 A3 Z VDD VSS
.ends

* Black-box entry subcircuit for gf180mcu_fd_sc_mcu7t5v0__buf_2 abstract view
.subckt gf180mcu_fd_sc_mcu7t5v0__buf_2 I Z VDD VSS
.ends

* Black-box entry subcircuit for gf180mcu_fd_sc_mcu7t5v0__oai211_2 abstract view
.subckt gf180mcu_fd_sc_mcu7t5v0__oai211_2 A1 A2 B C ZN VDD VSS
.ends

* Black-box entry subcircuit for gf180mcu_fd_sc_mcu7t5v0__inv_8 abstract view
.subckt gf180mcu_fd_sc_mcu7t5v0__inv_8 I ZN VDD VSS
.ends

* Black-box entry subcircuit for gf180mcu_fd_sc_mcu7t5v0__buf_3 abstract view
.subckt gf180mcu_fd_sc_mcu7t5v0__buf_3 I Z VDD VSS
.ends

* Black-box entry subcircuit for gf180mcu_fd_sc_mcu7t5v0__xnor2_4 abstract view
.subckt gf180mcu_fd_sc_mcu7t5v0__xnor2_4 A1 A2 ZN VDD VSS
.ends

* Black-box entry subcircuit for gf180mcu_fd_sc_mcu7t5v0__nand4_4 abstract view
.subckt gf180mcu_fd_sc_mcu7t5v0__nand4_4 A1 A2 A3 A4 ZN VDD VSS
.ends

* Black-box entry subcircuit for gf180mcu_fd_sc_mcu7t5v0__aoi22_2 abstract view
.subckt gf180mcu_fd_sc_mcu7t5v0__aoi22_2 A1 A2 B1 B2 ZN VDD VSS
.ends

* Black-box entry subcircuit for gf180mcu_fd_sc_mcu7t5v0__or4_4 abstract view
.subckt gf180mcu_fd_sc_mcu7t5v0__or4_4 A1 A2 A3 A4 Z VDD VSS
.ends

* Black-box entry subcircuit for gf180mcu_fd_sc_mcu7t5v0__clkinv_2 abstract view
.subckt gf180mcu_fd_sc_mcu7t5v0__clkinv_2 I ZN VDD VSS
.ends

* Black-box entry subcircuit for gf180mcu_fd_sc_mcu7t5v0__oai32_2 abstract view
.subckt gf180mcu_fd_sc_mcu7t5v0__oai32_2 A1 A2 A3 B1 B2 ZN VDD VSS
.ends

* Black-box entry subcircuit for gf180mcu_fd_sc_mcu7t5v0__dffq_1 abstract view
.subckt gf180mcu_fd_sc_mcu7t5v0__dffq_1 D CLK Q VDD VSS
.ends

* Black-box entry subcircuit for gf180mcu_fd_sc_mcu7t5v0__inv_3 abstract view
.subckt gf180mcu_fd_sc_mcu7t5v0__inv_3 I ZN VDD VSS
.ends

* Black-box entry subcircuit for gf180mcu_fd_sc_mcu7t5v0__aoi22_1 abstract view
.subckt gf180mcu_fd_sc_mcu7t5v0__aoi22_1 A1 A2 B1 B2 ZN VDD VSS
.ends

* Black-box entry subcircuit for gf180mcu_fd_sc_mcu7t5v0__xor2_1 abstract view
.subckt gf180mcu_fd_sc_mcu7t5v0__xor2_1 A1 A2 Z VDD VSS
.ends

* Black-box entry subcircuit for gf180mcu_fd_sc_mcu7t5v0__or3_1 abstract view
.subckt gf180mcu_fd_sc_mcu7t5v0__or3_1 A1 A2 A3 Z VDD VSS
.ends

* Black-box entry subcircuit for gf180mcu_fd_sc_mcu7t5v0__aoi211_4 abstract view
.subckt gf180mcu_fd_sc_mcu7t5v0__aoi211_4 A1 A2 B C ZN VDD VSS
.ends

* Black-box entry subcircuit for gf180mcu_fd_sc_mcu7t5v0__nand3_2 abstract view
.subckt gf180mcu_fd_sc_mcu7t5v0__nand3_2 A1 A2 A3 ZN VDD VSS
.ends

.subckt user_project_wrapper io_in[0] io_in[10] io_in[11] io_in[12] io_in[13] io_in[14]
+ io_in[15] io_in[16] io_in[17] io_in[18] io_in[19] io_in[1] io_in[20] io_in[21] io_in[22]
+ io_in[23] io_in[24] io_in[25] io_in[26] io_in[27] io_in[28] io_in[29] io_in[2] io_in[30]
+ io_in[31] io_in[32] io_in[33] io_in[34] io_in[35] io_in[36] io_in[37] io_in[3] io_in[4]
+ io_in[5] io_in[6] io_in[7] io_in[8] io_in[9] io_oeb[0] io_oeb[10] io_oeb[11] io_oeb[12]
+ io_oeb[13] io_oeb[14] io_oeb[15] io_oeb[16] io_oeb[17] io_oeb[18] io_oeb[19] io_oeb[1]
+ io_oeb[20] io_oeb[21] io_oeb[22] io_oeb[23] io_oeb[24] io_oeb[25] io_oeb[26] io_oeb[27]
+ io_oeb[28] io_oeb[29] io_oeb[2] io_oeb[30] io_oeb[31] io_oeb[32] io_oeb[33] io_oeb[34]
+ io_oeb[35] io_oeb[36] io_oeb[37] io_oeb[3] io_oeb[4] io_oeb[5] io_oeb[6] io_oeb[7]
+ io_oeb[8] io_oeb[9] io_out[0] io_out[10] io_out[11] io_out[12] io_out[13] io_out[14]
+ io_out[15] io_out[16] io_out[17] io_out[18] io_out[19] io_out[1] io_out[20] io_out[21]
+ io_out[22] io_out[23] io_out[24] io_out[25] io_out[26] io_out[27] io_out[28] io_out[29]
+ io_out[2] io_out[30] io_out[31] io_out[32] io_out[33] io_out[34] io_out[35] io_out[36]
+ io_out[37] io_out[3] io_out[4] io_out[5] io_out[6] io_out[7] io_out[8] io_out[9]
+ la_data_in[0] la_data_in[10] la_data_in[11] la_data_in[12] la_data_in[13] la_data_in[14]
+ la_data_in[15] la_data_in[16] la_data_in[17] la_data_in[18] la_data_in[19] la_data_in[1]
+ la_data_in[20] la_data_in[21] la_data_in[22] la_data_in[23] la_data_in[24] la_data_in[25]
+ la_data_in[26] la_data_in[27] la_data_in[28] la_data_in[29] la_data_in[2] la_data_in[30]
+ la_data_in[31] la_data_in[32] la_data_in[33] la_data_in[34] la_data_in[35] la_data_in[36]
+ la_data_in[37] la_data_in[38] la_data_in[39] la_data_in[3] la_data_in[40] la_data_in[41]
+ la_data_in[42] la_data_in[43] la_data_in[44] la_data_in[45] la_data_in[46] la_data_in[47]
+ la_data_in[48] la_data_in[49] la_data_in[4] la_data_in[50] la_data_in[51] la_data_in[52]
+ la_data_in[53] la_data_in[54] la_data_in[55] la_data_in[56] la_data_in[57] la_data_in[58]
+ la_data_in[59] la_data_in[5] la_data_in[60] la_data_in[61] la_data_in[62] la_data_in[63]
+ la_data_in[6] la_data_in[7] la_data_in[8] la_data_in[9] la_data_out[0] la_data_out[10]
+ la_data_out[11] la_data_out[12] la_data_out[13] la_data_out[14] la_data_out[15]
+ la_data_out[16] la_data_out[17] la_data_out[18] la_data_out[19] la_data_out[1] la_data_out[20]
+ la_data_out[21] la_data_out[22] la_data_out[23] la_data_out[24] la_data_out[25]
+ la_data_out[26] la_data_out[27] la_data_out[28] la_data_out[29] la_data_out[2] la_data_out[30]
+ la_data_out[31] la_data_out[32] la_data_out[33] la_data_out[34] la_data_out[35]
+ la_data_out[36] la_data_out[37] la_data_out[38] la_data_out[39] la_data_out[3] la_data_out[40]
+ la_data_out[41] la_data_out[42] la_data_out[43] la_data_out[44] la_data_out[45]
+ la_data_out[46] la_data_out[47] la_data_out[48] la_data_out[49] la_data_out[4] la_data_out[50]
+ la_data_out[51] la_data_out[52] la_data_out[53] la_data_out[54] la_data_out[55]
+ la_data_out[56] la_data_out[57] la_data_out[58] la_data_out[59] la_data_out[5] la_data_out[60]
+ la_data_out[61] la_data_out[62] la_data_out[63] la_data_out[6] la_data_out[7] la_data_out[8]
+ la_data_out[9] la_oenb[0] la_oenb[10] la_oenb[11] la_oenb[12] la_oenb[13] la_oenb[14]
+ la_oenb[15] la_oenb[16] la_oenb[17] la_oenb[18] la_oenb[19] la_oenb[1] la_oenb[20]
+ la_oenb[21] la_oenb[22] la_oenb[23] la_oenb[24] la_oenb[25] la_oenb[26] la_oenb[27]
+ la_oenb[28] la_oenb[29] la_oenb[2] la_oenb[30] la_oenb[31] la_oenb[32] la_oenb[33]
+ la_oenb[34] la_oenb[35] la_oenb[36] la_oenb[37] la_oenb[38] la_oenb[39] la_oenb[3]
+ la_oenb[40] la_oenb[41] la_oenb[42] la_oenb[43] la_oenb[44] la_oenb[45] la_oenb[46]
+ la_oenb[47] la_oenb[48] la_oenb[49] la_oenb[4] la_oenb[50] la_oenb[51] la_oenb[52]
+ la_oenb[53] la_oenb[54] la_oenb[55] la_oenb[56] la_oenb[57] la_oenb[58] la_oenb[59]
+ la_oenb[5] la_oenb[60] la_oenb[61] la_oenb[62] la_oenb[63] la_oenb[6] la_oenb[7]
+ la_oenb[8] la_oenb[9] user_clock2 user_irq[0] user_irq[1] user_irq[2] vdd vss wb_clk_i
+ wb_rst_i wbs_ack_o wbs_adr_i[0] wbs_adr_i[10] wbs_adr_i[11] wbs_adr_i[12] wbs_adr_i[13]
+ wbs_adr_i[14] wbs_adr_i[15] wbs_adr_i[16] wbs_adr_i[17] wbs_adr_i[18] wbs_adr_i[19]
+ wbs_adr_i[1] wbs_adr_i[20] wbs_adr_i[21] wbs_adr_i[22] wbs_adr_i[23] wbs_adr_i[24]
+ wbs_adr_i[25] wbs_adr_i[26] wbs_adr_i[27] wbs_adr_i[28] wbs_adr_i[29] wbs_adr_i[2]
+ wbs_adr_i[30] wbs_adr_i[31] wbs_adr_i[3] wbs_adr_i[4] wbs_adr_i[5] wbs_adr_i[6]
+ wbs_adr_i[7] wbs_adr_i[8] wbs_adr_i[9] wbs_cyc_i wbs_dat_i[0] wbs_dat_i[10] wbs_dat_i[11]
+ wbs_dat_i[12] wbs_dat_i[13] wbs_dat_i[14] wbs_dat_i[15] wbs_dat_i[16] wbs_dat_i[17]
+ wbs_dat_i[18] wbs_dat_i[19] wbs_dat_i[1] wbs_dat_i[20] wbs_dat_i[21] wbs_dat_i[22]
+ wbs_dat_i[23] wbs_dat_i[24] wbs_dat_i[25] wbs_dat_i[26] wbs_dat_i[27] wbs_dat_i[28]
+ wbs_dat_i[29] wbs_dat_i[2] wbs_dat_i[30] wbs_dat_i[31] wbs_dat_i[3] wbs_dat_i[4]
+ wbs_dat_i[5] wbs_dat_i[6] wbs_dat_i[7] wbs_dat_i[8] wbs_dat_i[9] wbs_dat_o[0] wbs_dat_o[10]
+ wbs_dat_o[11] wbs_dat_o[12] wbs_dat_o[13] wbs_dat_o[14] wbs_dat_o[15] wbs_dat_o[16]
+ wbs_dat_o[17] wbs_dat_o[18] wbs_dat_o[19] wbs_dat_o[1] wbs_dat_o[20] wbs_dat_o[21]
+ wbs_dat_o[22] wbs_dat_o[23] wbs_dat_o[24] wbs_dat_o[25] wbs_dat_o[26] wbs_dat_o[27]
+ wbs_dat_o[28] wbs_dat_o[29] wbs_dat_o[2] wbs_dat_o[30] wbs_dat_o[31] wbs_dat_o[3]
+ wbs_dat_o[4] wbs_dat_o[5] wbs_dat_o[6] wbs_dat_o[7] wbs_dat_o[8] wbs_dat_o[9] wbs_sel_i[0]
+ wbs_sel_i[1] wbs_sel_i[2] wbs_sel_i[3] wbs_stb_i wbs_we_i
X_1270_ mprj.PS_Rx_inst6.LUT_inst1.i3 _0600_ _1270_/VDD _1270_/VSS gf180mcu_fd_sc_mcu7t5v0__inv_4
X_1399_ _0014_ net71 mprj.PS_R1_inst1.LUT_inst14.I1 _1399_/VDD _1399_/VSS gf180mcu_fd_sc_mcu7t5v0__dffq_4
X_0985_ _0296_ _0299_ _0327_ _0328_ net40 _0985_/VDD _0985_/VSS gf180mcu_fd_sc_mcu7t5v0__oai22_2
X_1184_ _0297_ _0204_ _0222_ _0269_ _0518_ _0519_ _1184_/VDD _1184_/VSS gf180mcu_fd_sc_mcu7t5v0__aoi221_4
X_0968_ _0279_ _0309_ _0311_ _0312_ _0968_/VDD _0968_/VSS gf180mcu_fd_sc_mcu7t5v0__xnor3_4
X_1253_ _0249_ _0583_ _0584_ _1253_/VDD _1253_/VSS gf180mcu_fd_sc_mcu7t5v0__nand2_1
X_0770_ _0104_ _0121_ _0122_ _0770_/VDD _0770_/VSS gf180mcu_fd_sc_mcu7t5v0__xor2_2
X_1322_ _0641_ _0003_ _1322_/VDD _1322_/VSS gf180mcu_fd_sc_mcu7t5v0__clkbuf_2
X_0899_ _0187_ mprj.PS_Rx_inst6.LUT_inst1.i3 _0245_ _0899_/VDD _0899_/VSS gf180mcu_fd_sc_mcu7t5v0__nand2_4
X_0753_ _0104_ _0068_ _0105_ _0753_/VDD _0753_/VSS gf180mcu_fd_sc_mcu7t5v0__nor2_4
X_0822_ net8 _0170_ _0040_ _0171_ _0822_/VDD _0822_/VSS gf180mcu_fd_sc_mcu7t5v0__oai21_4
X_0684_ net7 _0041_ _0684_/VDD _0684_/VSS gf180mcu_fd_sc_mcu7t5v0__inv_1
X_1305_ _0322_ mprj.PS_Rx_inst8.LUT_inst1.i3 _0631_ _1305_/VDD _1305_/VSS gf180mcu_fd_sc_mcu7t5v0__nor2_1
X_1098_ _0147_ _0249_ _0289_ _0437_ _1098_/VDD _1098_/VSS gf180mcu_fd_sc_mcu7t5v0__aoi21_4
X_1167_ _0136_ mprj.PS_Rx_inst3.LUT_inst1.i3 _0451_ _0503_ _1167_/VDD _1167_/VSS gf180mcu_fd_sc_mcu7t5v0__nor3_4
X_1236_ _0270_ _0323_ _0334_ _0568_ _1236_/VDD _1236_/VSS gf180mcu_fd_sc_mcu7t5v0__aoi21_4
X_1219_ _0190_ _0382_ _0443_ _0170_ _0551_ _0552_ _1219_/VDD _1219_/VSS gf180mcu_fd_sc_mcu7t5v0__aoi221_4
X_1021_ _0239_ _0116_ _0132_ _0216_ _0362_ _0363_ _1021_/VDD _1021_/VSS gf180mcu_fd_sc_mcu7t5v0__aoi221_4
X_0736_ _0067_ _0089_ _0050_ _0090_ _0736_/VDD _0736_/VSS gf180mcu_fd_sc_mcu7t5v0__aoi21_4
X_0805_ _0104_ mprj.PS_Rx_inst4.LUT_inst1.i3 _0155_ _0805_/VDD _0805_/VSS gf180mcu_fd_sc_mcu7t5v0__or2_4
Xuser_project_wrapper_92 io_oeb[20] user_project_wrapper_92/VDD user_project_wrapper_92/VSS
+ gf180mcu_fd_sc_mcu7t5v0__tiel
X_1004_ mprj.PS_R1_inst1.LUT_inst10.I1 _0119_ _0129_ _0347_ _1004_/VDD _1004_/VSS
+ gf180mcu_fd_sc_mcu7t5v0__aoi21_4
Xuser_project_wrapper_81 io_oeb[9] user_project_wrapper_81/VDD user_project_wrapper_81/VSS
+ gf180mcu_fd_sc_mcu7t5v0__tiel
X_0719_ _0046_ _0065_ _0073_ _0719_/VDD _0719_/VSS gf180mcu_fd_sc_mcu7t5v0__nor2_4
Xuser_project_wrapper_119 io_out[12] user_project_wrapper_119/VDD user_project_wrapper_119/VSS
+ gf180mcu_fd_sc_mcu7t5v0__tiel
Xoutput53 net53 wbs_dat_o[25] output53/VDD output53/VSS gf180mcu_fd_sc_mcu7t5v0__clkbuf_3
Xoutput42 net42 wbs_dat_o[15] output42/VDD output42/VSS gf180mcu_fd_sc_mcu7t5v0__clkbuf_3
Xoutput64 net64 wbs_dat_o[6] output64/VDD output64/VSS gf180mcu_fd_sc_mcu7t5v0__clkbuf_3
Xuser_project_wrapper_108 io_oeb[36] user_project_wrapper_108/VDD user_project_wrapper_108/VSS
+ gf180mcu_fd_sc_mcu7t5v0__tiel
X_1398_ _0013_ net68 mprj.PS_R1_inst1.LUT_inst13.I1 _1398_/VDD _1398_/VSS gf180mcu_fd_sc_mcu7t5v0__dffq_4
X_0984_ _0315_ _0326_ _0102_ _0328_ _0984_/VDD _1263_/VSS gf180mcu_fd_sc_mcu7t5v0__oai21_4
X_1252_ _0237_ _0390_ _0244_ _0583_ _1252_/VDD _1252_/VSS gf180mcu_fd_sc_mcu7t5v0__nor3_4
X_1321_ net23 _0071_ _0637_ _0641_ _1321_/VDD _1321_/VSS gf180mcu_fd_sc_mcu7t5v0__mux2_2
X_1183_ _0297_ _0209_ _0220_ _0518_ _1183_/VDD _1183_/VSS gf180mcu_fd_sc_mcu7t5v0__aoi21_2
X_0967_ mprj.PS_R1_inst1.LUT_inst11.I1 _0076_ _0138_ mprj.PS_R1_inst1.LUT_inst10.I1
+ _0310_ _0311_ _0967_/VDD _0967_/VSS gf180mcu_fd_sc_mcu7t5v0__aoi221_4
X_0898_ _0187_ mprj.PS_Rx_inst6.LUT_inst1.i3 _0244_ _0898_/VDD _0898_/VSS gf180mcu_fd_sc_mcu7t5v0__nor2_4
X_0821_ _0169_ _0170_ _0821_/VDD _0821_/VSS gf180mcu_fd_sc_mcu7t5v0__clkbuf_12
X_0752_ mprj.PS_Rx_inst3.LUT_inst1.i4 _0104_ _0752_/VDD _0752_/VSS gf180mcu_fd_sc_mcu7t5v0__buf_12
X_1097_ _0433_ _0435_ _0436_ _1097_/VDD _1097_/VSS gf180mcu_fd_sc_mcu7t5v0__xor2_2
X_1304_ _0630_ net57 _1304_/VDD _1304_/VSS gf180mcu_fd_sc_mcu7t5v0__inv_1
X_1235_ _0217_ _0382_ _0443_ _0190_ _0566_ _0567_ _1235_/VDD _1235_/VSS gf180mcu_fd_sc_mcu7t5v0__aoi221_4
X_0683_ _0036_ _0038_ _0039_ _0040_ _0683_/VDD _0683_/VSS gf180mcu_fd_sc_mcu7t5v0__and3_4
X_1166_ _0486_ _0501_ _0502_ _1166_/VDD _1166_/VSS gf180mcu_fd_sc_mcu7t5v0__xor2_4
X_1020_ mprj.PS_R1_inst1.LUT_inst11.I1 _0119_ _0130_ _0362_ _1020_/VDD _1020_/VSS
+ gf180mcu_fd_sc_mcu7t5v0__aoi21_4
X_0804_ mprj.PS_Rx_inst4.LUT_inst1.i4 _0154_ _0804_/VDD _0804_/VSS gf180mcu_fd_sc_mcu7t5v0__clkinv_8
X_0735_ _0085_ _0088_ _0089_ _0735_/VDD _0735_/VSS gf180mcu_fd_sc_mcu7t5v0__nand2_4
X_1149_ _0086_ _0454_ _0485_ _0486_ _1149_/VDD _1149_/VSS gf180mcu_fd_sc_mcu7t5v0__xor3_2
X_1218_ _0190_ _0385_ _0411_ _0551_ _1218_/VDD _1218_/VSS gf180mcu_fd_sc_mcu7t5v0__aoi21_4
Xuser_project_wrapper_93 io_oeb[21] user_project_wrapper_93/VDD user_project_wrapper_93/VSS
+ gf180mcu_fd_sc_mcu7t5v0__tiel
X_1003_ _0169_ _0156_ _0175_ _0146_ _0345_ _0346_ _1003_/VDD _1003_/VSS gf180mcu_fd_sc_mcu7t5v0__aoi221_4
Xuser_project_wrapper_82 io_oeb[10] user_project_wrapper_82/VDD user_project_wrapper_82/VSS
+ gf180mcu_fd_sc_mcu7t5v0__tiel
X_0718_ _0058_ _0071_ _0064_ _0072_ _0718_/VDD _0718_/VSS gf180mcu_fd_sc_mcu7t5v0__aoi21_4
Xoutput54 net54 wbs_dat_o[26] output54/VDD output54/VSS gf180mcu_fd_sc_mcu7t5v0__clkbuf_3
Xoutput43 net43 wbs_dat_o[16] output43/VDD output43/VSS gf180mcu_fd_sc_mcu7t5v0__clkbuf_3
Xoutput65 net65 wbs_dat_o[7] output65/VDD output65/VSS gf180mcu_fd_sc_mcu7t5v0__clkbuf_3
Xuser_project_wrapper_109 io_oeb[37] user_project_wrapper_109/VDD user_project_wrapper_109/VSS
+ gf180mcu_fd_sc_mcu7t5v0__tiel
Xoutput32 net32 io_out[0] output32/VDD output32/VSS gf180mcu_fd_sc_mcu7t5v0__clkbuf_3
X_0983_ _0315_ _0326_ _0327_ _0983_/VDD _0983_/VSS gf180mcu_fd_sc_mcu7t5v0__and2_2
X_1397_ _0012_ net71 mprj.PS_R1_inst1.LUT_inst12.I1 _1397_/VDD _1397_/VSS gf180mcu_fd_sc_mcu7t5v0__dffq_4
X_1320_ _0640_ _0002_ _1320_/VDD _1320_/VSS gf180mcu_fd_sc_mcu7t5v0__clkbuf_2
X_1182_ _0147_ _0382_ _0443_ _0127_ _0516_ _0517_ _1182_/VDD _1182_/VSS gf180mcu_fd_sc_mcu7t5v0__aoi221_4
X_1251_ _0298_ _0320_ _0337_ _0270_ _0581_ _0582_ _1251_/VDD _1251_/VSS gf180mcu_fd_sc_mcu7t5v0__aoi221_4
X_0897_ mprj.PS_Rx_inst6.LUT_inst1.i3 _0237_ _0243_ _0897_/VDD _0897_/VSS gf180mcu_fd_sc_mcu7t5v0__nand2_4
X_0966_ mprj.PS_R1_inst1.LUT_inst11.I1 _0081_ _0099_ _0310_ _0966_/VDD _0966_/VSS
+ gf180mcu_fd_sc_mcu7t5v0__aoi21_4
X_1234_ _0217_ _0385_ _0411_ _0566_ _1234_/VDD _1234_/VSS gf180mcu_fd_sc_mcu7t5v0__aoi21_4
X_1165_ _0330_ _0157_ _0175_ _0297_ _0500_ _0501_ _1165_/VDD _1165_/VSS gf180mcu_fd_sc_mcu7t5v0__aoi221_4
X_0682_ net7 _0032_ _0039_ _0682_/VDD _0682_/VSS gf180mcu_fd_sc_mcu7t5v0__nor2_4
X_1303_ _0627_ _0628_ _0629_ _0630_ _1303_/VDD _1303_/VSS gf180mcu_fd_sc_mcu7t5v0__oai21_2
X_1096_ _0189_ _0205_ _0222_ _0169_ _0434_ _0435_ _1096_/VDD _1096_/VSS gf180mcu_fd_sc_mcu7t5v0__aoi221_4
X_0751_ _0092_ _0095_ _0101_ _0103_ net62 _0751_/VDD _0751_/VSS gf180mcu_fd_sc_mcu7t5v0__aoi22_4
X_0820_ mprj.PS_R1_inst1.LUT_inst8.I1 _0169_ _0820_/VDD _0820_/VSS gf180mcu_fd_sc_mcu7t5v0__buf_12
X_0949_ _0282_ _0292_ _0293_ _0294_ _0949_/VDD _0949_/VSS gf180mcu_fd_sc_mcu7t5v0__oai21_4
X_0803_ _0078_ _0104_ _0149_ _0150_ _0152_ _0153_ _0803_/VDD _0803_/VSS gf180mcu_fd_sc_mcu7t5v0__oai32_4
X_0734_ _0086_ _0077_ _0087_ _0088_ _0734_/VDD _0734_/VSS gf180mcu_fd_sc_mcu7t5v0__nand3_4
X_1079_ _0377_ _0417_ _0103_ _0419_ _1079_/VDD _1079_/VSS gf180mcu_fd_sc_mcu7t5v0__oai21_2
X_1148_ _0449_ _0116_ _0132_ _0483_ _0484_ _0485_ _1148_/VDD _1148_/VSS gf180mcu_fd_sc_mcu7t5v0__aoi221_4
X_1217_ _0051_ _0550_ net50 _1217_/VDD _1217_/VSS gf180mcu_fd_sc_mcu7t5v0__nor2_2
Xuser_project_wrapper_94 io_oeb[22] user_project_wrapper_94/VDD user_project_wrapper_94/VSS
+ gf180mcu_fd_sc_mcu7t5v0__tiel
X_0717_ _0070_ _0071_ _0717_/VDD _0717_/VSS gf180mcu_fd_sc_mcu7t5v0__clkbuf_12
Xuser_project_wrapper_83 io_oeb[11] user_project_wrapper_83/VDD user_project_wrapper_83/VSS
+ gf180mcu_fd_sc_mcu7t5v0__tiel
X_1002_ _0169_ _0152_ _0173_ _0345_ _1002_/VDD _1002_/VSS gf180mcu_fd_sc_mcu7t5v0__aoi21_4
Xuser_project_wrapper_72 io_oeb[0] user_project_wrapper_72/VDD user_project_wrapper_72/VSS
+ gf180mcu_fd_sc_mcu7t5v0__tiel
Xoutput55 net55 wbs_dat_o[27] output55/VDD output55/VSS gf180mcu_fd_sc_mcu7t5v0__clkbuf_3
Xoutput44 net44 wbs_dat_o[17] output44/VDD output44/VSS gf180mcu_fd_sc_mcu7t5v0__clkbuf_3
Xoutput66 net66 wbs_dat_o[8] output66/VDD output66/VSS gf180mcu_fd_sc_mcu7t5v0__clkbuf_3
Xoutput33 net33 io_out[1] output33/VDD output33/VSS gf180mcu_fd_sc_mcu7t5v0__clkbuf_3
X_0982_ _0295_ _0325_ _0326_ _0982_/VDD _0982_/VSS gf180mcu_fd_sc_mcu7t5v0__xor2_4
X_1396_ _0011_ net71 mprj.PS_R1_inst1.LUT_inst11.I1 _1396_/VDD _1396_/VSS gf180mcu_fd_sc_mcu7t5v0__dffq_4
X_0965_ _0189_ _0115_ _0131_ _0169_ _0308_ _0309_ _0965_/VDD _0965_/VSS gf180mcu_fd_sc_mcu7t5v0__aoi221_4
X_1181_ _0147_ _0385_ _0411_ _0516_ _1181_/VDD _1181_/VSS gf180mcu_fd_sc_mcu7t5v0__aoi21_2
X_0896_ mprj.PS_Rx_inst6.LUT_inst1.i4 _0242_ _0896_/VDD _0896_/VSS gf180mcu_fd_sc_mcu7t5v0__clkinv_8
X_1250_ _0298_ _0323_ _0334_ _0581_ _1250_/VDD _1250_/VSS gf180mcu_fd_sc_mcu7t5v0__aoi21_2
X_1379_ net19 mprj.PS_Rx_inst8.LUT_inst1.i3 _0655_ _0672_ _1379_/VDD _1379_/VSS gf180mcu_fd_sc_mcu7t5v0__mux2_2
X_1302_ _0627_ _0628_ _0051_ _0629_ _1302_/VDD _1302_/VSS gf180mcu_fd_sc_mcu7t5v0__aoi21_4
X_0681_ net31 _0037_ _0038_ _0681_/VDD _0681_/VSS gf180mcu_fd_sc_mcu7t5v0__nor2_4
X_1233_ _0421_ _0565_ net51 _1233_/VDD _1233_/VSS gf180mcu_fd_sc_mcu7t5v0__nand2_1
X_1095_ _0189_ _0209_ _0220_ _0434_ _1095_/VDD _1095_/VSS gf180mcu_fd_sc_mcu7t5v0__aoi21_2
X_1164_ _0330_ _0152_ _0173_ _0500_ _1164_/VDD _1164_/VSS gf180mcu_fd_sc_mcu7t5v0__aoi21_4
X_0750_ _0102_ _0103_ _0750_/VDD _0750_/VSS gf180mcu_fd_sc_mcu7t5v0__buf_8
X_0948_ _0282_ _0292_ _0050_ _0293_ _0948_/VDD _0948_/VSS gf180mcu_fd_sc_mcu7t5v0__aoi21_4
X_0879_ _0126_ _0119_ _0130_ _0226_ _0879_/VDD _0879_/VSS gf180mcu_fd_sc_mcu7t5v0__aoi21_4
X_0802_ _0151_ _0152_ _0802_/VDD _0802_/VSS gf180mcu_fd_sc_mcu7t5v0__buf_12
X_0733_ _0052_ _0065_ _0067_ _0078_ _0087_ _0733_/VDD _0733_/VSS gf180mcu_fd_sc_mcu7t5v0__oai22_4
X_1078_ _0377_ _0417_ _0418_ _1078_/VDD _1078_/VSS gf180mcu_fd_sc_mcu7t5v0__and2_1
X_1216_ _0530_ _0547_ _0549_ _0550_ _1216_/VDD _1216_/VSS gf180mcu_fd_sc_mcu7t5v0__xor3_2
X_1147_ _0449_ _0130_ _0484_ _1147_/VDD _1147_/VSS gf180mcu_fd_sc_mcu7t5v0__nor2_4
X_0716_ mprj.PS_R1_inst1.LUT_inst3.I1 _0070_ _0716_/VDD _0716_/VSS gf180mcu_fd_sc_mcu7t5v0__clkbuf_12
Xuser_project_wrapper_95 io_oeb[23] user_project_wrapper_95/VDD user_project_wrapper_95/VSS
+ gf180mcu_fd_sc_mcu7t5v0__tiel
Xuser_project_wrapper_84 io_oeb[12] user_project_wrapper_84/VDD user_project_wrapper_84/VSS
+ gf180mcu_fd_sc_mcu7t5v0__tiel
X_1001_ _0126_ _0204_ _0221_ mprj.PS_R1_inst1.LUT_inst5.I1 _0343_ _0344_ _1001_/VDD
+ _1001_/VSS gf180mcu_fd_sc_mcu7t5v0__aoi221_4
Xuser_project_wrapper_73 io_oeb[1] user_project_wrapper_73/VDD user_project_wrapper_73/VSS
+ gf180mcu_fd_sc_mcu7t5v0__tiel
Xoutput56 net56 wbs_dat_o[28] output56/VDD output56/VSS gf180mcu_fd_sc_mcu7t5v0__clkbuf_3
Xoutput45 net45 wbs_dat_o[18] output45/VDD output45/VSS gf180mcu_fd_sc_mcu7t5v0__clkbuf_3
Xoutput67 net67 wbs_dat_o[9] output67/VDD output67/VSS gf180mcu_fd_sc_mcu7t5v0__clkbuf_3
Xoutput34 net34 io_out[2] output34/VDD output34/VSS gf180mcu_fd_sc_mcu7t5v0__clkbuf_3
X_0981_ _0059_ _0320_ _0321_ _0250_ _0324_ _0325_ _0981_/VDD _0981_/VSS gf180mcu_fd_sc_mcu7t5v0__aoi221_4
X_1395_ _0010_ net69 mprj.PS_R1_inst1.LUT_inst10.I1 _1395_/VDD _1395_/VSS gf180mcu_fd_sc_mcu7t5v0__dffq_4
X_1180_ _0051_ _0515_ net48 _1180_/VDD _1180_/VSS gf180mcu_fd_sc_mcu7t5v0__nor2_4
X_0895_ _0058_ _0240_ _0064_ _0241_ _0895_/VDD _0895_/VSS gf180mcu_fd_sc_mcu7t5v0__aoi21_4
X_0964_ mprj.PS_R1_inst1.LUT_inst10.I0 _0119_ _0129_ _0308_ _0964_/VDD _0964_/VSS
+ gf180mcu_fd_sc_mcu7t5v0__aoi21_4
X_1378_ _0322_ _0656_ _0671_ _0029_ _1378_/VDD _1378_/VSS gf180mcu_fd_sc_mcu7t5v0__aoi21_4
X_1301_ _0086_ _0620_ _0628_ _1301_/VDD _1301_/VSS gf180mcu_fd_sc_mcu7t5v0__xor2_4
X_0680_ net13 net30 _0037_ _0680_/VDD _0680_/VSS gf180mcu_fd_sc_mcu7t5v0__nand2_2
X_1232_ _0547_ _0563_ _0564_ _0565_ _1232_/VDD _1232_/VSS gf180mcu_fd_sc_mcu7t5v0__oai21_1
X_0947_ _0265_ _0291_ _0292_ _0947_/VDD _0947_/VSS gf180mcu_fd_sc_mcu7t5v0__xor2_4
X_1094_ _0403_ _0430_ _0432_ _0433_ _1094_/VDD _1094_/VSS gf180mcu_fd_sc_mcu7t5v0__xnor3_2
X_1163_ _0217_ _0247_ _0286_ _0190_ _0498_ _0499_ _1163_/VDD _1163_/VSS gf180mcu_fd_sc_mcu7t5v0__aoi221_1
X_0878_ _0063_ _0220_ _0223_ _0224_ _0225_ _0878_/VDD _0878_/VSS gf180mcu_fd_sc_mcu7t5v0__oai211_4
X_1077_ _0409_ _0416_ _0417_ _1077_/VDD _1077_/VSS gf180mcu_fd_sc_mcu7t5v0__xnor2_2
X_1215_ _0170_ _0382_ _0443_ _0147_ _0548_ _0549_ _1215_/VDD _1215_/VSS gf180mcu_fd_sc_mcu7t5v0__aoi221_4
X_1146_ mprj.PS_R1_inst1.LUT_inst14.I1 _0117_ _0483_ _1146_/VDD _1146_/VSS gf180mcu_fd_sc_mcu7t5v0__or2_2
X_0801_ _0104_ mprj.PS_Rx_inst4.LUT_inst1.i3 _0151_ _0801_/VDD _0801_/VSS gf180mcu_fd_sc_mcu7t5v0__nand2_4
X_0732_ _0046_ _0048_ _0086_ _0732_/VDD _0732_/VSS gf180mcu_fd_sc_mcu7t5v0__nand2_4
Xuser_project_wrapper_96 io_oeb[24] user_project_wrapper_96/VDD user_project_wrapper_96/VSS
+ gf180mcu_fd_sc_mcu7t5v0__tiel
Xuser_project_wrapper_85 io_oeb[13] user_project_wrapper_85/VDD user_project_wrapper_85/VSS
+ gf180mcu_fd_sc_mcu7t5v0__tiel
X_0715_ _0067_ _0068_ _0069_ _0715_/VDD _0715_/VSS gf180mcu_fd_sc_mcu7t5v0__nor2_2
X_1000_ _0126_ _0208_ _0219_ _0343_ _1000_/VDD _1000_/VSS gf180mcu_fd_sc_mcu7t5v0__aoi21_4
Xuser_project_wrapper_74 io_oeb[2] user_project_wrapper_74/VDD user_project_wrapper_74/VSS
+ gf180mcu_fd_sc_mcu7t5v0__tiel
X_1129_ _0436_ _0463_ _0466_ _0467_ _1129_/VDD _1129_/VSS gf180mcu_fd_sc_mcu7t5v0__xor3_2
Xoutput57 net57 wbs_dat_o[29] output57/VDD output57/VSS gf180mcu_fd_sc_mcu7t5v0__clkbuf_3
Xoutput46 net46 wbs_dat_o[19] output46/VDD output46/VSS gf180mcu_fd_sc_mcu7t5v0__clkbuf_3