*SPEF "ieee 1481-1999"
*DESIGN "user_proj_example"
*DATE "11:11:11 Fri 11 11, 1111"
*VENDOR "OpenRCX"
*PROGRAM "Parallel Extraction"
*VERSION "1.0"
*DESIGN_FLOW "NAME_SCOPE LOCAL" "PIN_CAP NONE"
*DIVIDER /
*DELIMITER :
*BUS_DELIMITER []
*T_UNIT 1 NS
*C_UNIT 1 PF
*R_UNIT 1 OHM
*L_UNIT 1 HENRY

*NAME_MAP
*1 io_in[0]
*2 io_in[10]
*3 io_in[11]
*4 io_in[12]
*5 io_in[13]
*6 io_in[14]
*7 io_in[15]
*8 io_in[16]
*9 io_in[17]
*10 io_in[18]
*11 io_in[19]
*12 io_in[1]
*13 io_in[20]
*14 io_in[21]
*15 io_in[22]
*16 io_in[23]
*17 io_in[24]
*18 io_in[25]
*19 io_in[26]
*20 io_in[27]
*21 io_in[28]
*22 io_in[29]
*23 io_in[2]
*24 io_in[30]
*25 io_in[31]
*26 io_in[32]
*27 io_in[33]
*28 io_in[34]
*29 io_in[35]
*30 io_in[36]
*31 io_in[37]
*32 io_in[3]
*33 io_in[4]
*34 io_in[5]
*35 io_in[6]
*36 io_in[7]
*37 io_in[8]
*38 io_in[9]
*39 net179
*40 net189
*41 net190
*42 net191
*43 net192
*44 net193
*45 net194
*46 net195
*47 net196
*48 net197
*49 net198
*50 net180
*51 net199
*52 net200
*53 net201
*54 net202
*55 net203
*56 net204
*57 net205
*58 net206
*59 net207
*60 net208
*61 net181
*62 net209
*63 net210
*64 net211
*65 net212
*66 net213
*67 net214
*68 net215
*69 net216
*70 net182
*71 net183
*72 net184
*73 net185
*74 net186
*75 net187
*76 net188
*77 io_out[0]
*78 net224
*79 net225
*80 net226
*81 net227
*82 net228
*83 net229
*84 net230
*85 net231
*86 net232
*87 net233
*88 io_out[1]
*89 net234
*90 net235
*91 net236
*92 net237
*93 net238
*94 net239
*95 net240
*96 net241
*97 net242
*98 net243
*99 io_out[2]
*100 net244
*101 net8
*102 net9
*103 net10
*104 net11
*105 net12
*106 net13
*107 net14
*108 net217
*109 net218
*110 net219
*111 net220
*112 net221
*113 net222
*114 net223
*115 net15
*116 net16
*117 net17
*118 la_data_in[0]
*119 la_data_in[100]
*120 la_data_in[101]
*121 la_data_in[102]
*122 la_data_in[103]
*123 la_data_in[104]
*124 la_data_in[105]
*125 la_data_in[106]
*126 la_data_in[107]
*127 la_data_in[108]
*128 la_data_in[109]
*129 la_data_in[10]
*130 la_data_in[110]
*131 la_data_in[111]
*132 la_data_in[112]
*133 la_data_in[113]
*134 la_data_in[114]
*135 la_data_in[115]
*136 la_data_in[116]
*137 la_data_in[117]
*138 la_data_in[118]
*139 la_data_in[119]
*140 la_data_in[11]
*141 la_data_in[120]
*142 la_data_in[121]
*143 la_data_in[122]
*144 la_data_in[123]
*145 la_data_in[124]
*146 la_data_in[125]
*147 la_data_in[126]
*148 la_data_in[127]
*149 la_data_in[12]
*150 la_data_in[13]
*151 la_data_in[14]
*152 la_data_in[15]
*153 la_data_in[16]
*154 la_data_in[17]
*155 la_data_in[18]
*156 la_data_in[19]
*157 la_data_in[1]
*158 la_data_in[20]
*159 la_data_in[21]
*160 la_data_in[22]
*161 la_data_in[23]
*162 la_data_in[24]
*163 la_data_in[25]
*164 la_data_in[26]
*165 la_data_in[27]
*166 la_data_in[28]
*167 la_data_in[29]
*168 la_data_in[2]
*169 la_data_in[30]
*170 la_data_in[31]
*171 la_data_in[32]
*172 la_data_in[33]
*173 la_data_in[34]
*174 la_data_in[35]
*175 la_data_in[36]
*176 la_data_in[37]
*177 la_data_in[38]
*178 la_data_in[39]
*179 la_data_in[3]
*180 la_data_in[40]
*181 la_data_in[41]
*182 la_data_in[42]
*183 la_data_in[43]
*184 la_data_in[44]
*185 la_data_in[45]
*186 la_data_in[46]
*187 la_data_in[47]
*188 la_data_in[48]
*189 la_data_in[49]
*190 la_data_in[4]
*191 la_data_in[50]
*192 la_data_in[51]
*193 la_data_in[52]
*194 la_data_in[53]
*195 la_data_in[54]
*196 la_data_in[55]
*197 la_data_in[56]
*198 la_data_in[57]
*199 la_data_in[58]
*200 la_data_in[59]
*201 la_data_in[5]
*202 la_data_in[60]
*203 la_data_in[61]
*204 la_data_in[62]
*205 la_data_in[63]
*206 la_data_in[64]
*207 la_data_in[65]
*208 la_data_in[66]
*209 la_data_in[67]
*210 la_data_in[68]
*211 la_data_in[69]
*212 la_data_in[6]
*213 la_data_in[70]
*214 la_data_in[71]
*215 la_data_in[72]
*216 la_data_in[73]
*217 la_data_in[74]
*218 la_data_in[75]
*219 la_data_in[76]
*220 la_data_in[77]
*221 la_data_in[78]
*222 la_data_in[79]
*223 la_data_in[7]
*224 la_data_in[80]
*225 la_data_in[81]
*226 la_data_in[82]
*227 la_data_in[83]
*228 la_data_in[84]
*229 la_data_in[85]
*230 la_data_in[86]
*231 la_data_in[87]
*232 la_data_in[88]
*233 la_data_in[89]
*234 la_data_in[8]
*235 la_data_in[90]
*236 la_data_in[91]
*237 la_data_in[92]
*238 la_data_in[93]
*239 la_data_in[94]
*240 la_data_in[95]
*241 la_data_in[96]
*242 la_data_in[97]
*243 la_data_in[98]
*244 la_data_in[99]
*245 la_data_in[9]
*246 net18
*247 net118
*248 net119
*249 net120
*250 net121
*251 net122
*252 net123
*253 net124
*254 net125
*255 net126
*256 net127
*257 net28
*258 net128
*259 net129
*260 net130
*261 net131
*262 net132
*263 net133
*264 net134
*265 net135
*266 net136
*267 net137
*268 net29
*269 net138
*270 net139
*271 net140
*272 net141
*273 net142
*274 net143
*275 net144
*276 net145
*277 net30
*278 net31
*279 net32
*280 net33
*281 net34
*282 net35
*283 net36
*284 net37
*285 net19
*286 net38
*287 net39
*288 net40
*289 net41
*290 net42
*291 net43
*292 net44
*293 net45
*294 net46
*295 net47
*296 net20
*297 net48
*298 net49
*299 net50
*300 net51
*301 net52
*302 net53
*303 net54
*304 net55
*305 net56
*306 net57
*307 net21
*308 net58
*309 net59
*310 net60
*311 net61
*312 net62
*313 net63
*314 net64
*315 net65
*316 net66
*317 net67
*318 net22
*319 net68
*320 net69
*321 net70
*322 net71
*323 net72
*324 net73
*325 net74
*326 net75
*327 net76
*328 net77
*329 net23
*330 net78
*331 net79
*332 net80
*333 net81
*334 net82
*335 net83
*336 net84
*337 net85
*338 net86
*339 net87
*340 net24
*341 net88
*342 net89
*343 net90
*344 net91
*345 net92
*346 net93
*347 net94
*348 net95
*349 net96
*350 net97
*351 net25
*352 net98
*353 net99
*354 net100
*355 net101
*356 net102
*357 net103
*358 net104
*359 net105
*360 net106
*361 net107
*362 net26
*363 net108
*364 net109
*365 net110
*366 net111
*367 net112
*368 net113
*369 net114
*370 net115
*371 net116
*372 net117
*373 net27
*374 la_oenb[0]
*375 la_oenb[100]
*376 la_oenb[101]
*377 la_oenb[102]
*378 la_oenb[103]
*379 la_oenb[104]
*380 la_oenb[105]
*381 la_oenb[106]
*382 la_oenb[107]
*383 la_oenb[108]
*384 la_oenb[109]
*385 la_oenb[10]
*386 la_oenb[110]
*387 la_oenb[111]
*388 la_oenb[112]
*389 la_oenb[113]
*390 la_oenb[114]
*391 la_oenb[115]
*392 la_oenb[116]
*393 la_oenb[117]
*394 la_oenb[118]
*395 la_oenb[119]
*396 la_oenb[11]
*397 la_oenb[120]
*398 la_oenb[121]
*399 la_oenb[122]
*400 la_oenb[123]
*401 la_oenb[124]
*402 la_oenb[125]
*403 la_oenb[126]
*404 la_oenb[127]
*405 la_oenb[12]
*406 la_oenb[13]
*407 la_oenb[14]
*408 la_oenb[15]
*409 la_oenb[16]
*410 la_oenb[17]
*411 la_oenb[18]
*412 la_oenb[19]
*413 la_oenb[1]
*414 la_oenb[20]
*415 la_oenb[21]
*416 la_oenb[22]
*417 la_oenb[23]
*418 la_oenb[24]
*419 la_oenb[25]
*420 la_oenb[26]
*421 la_oenb[27]
*422 la_oenb[28]
*423 la_oenb[29]
*424 la_oenb[2]
*425 la_oenb[30]
*426 la_oenb[31]
*427 la_oenb[32]
*428 la_oenb[33]
*429 la_oenb[34]
*430 la_oenb[35]
*431 la_oenb[36]
*432 la_oenb[37]
*433 la_oenb[38]
*434 la_oenb[39]
*435 la_oenb[3]
*436 la_oenb[40]
*437 la_oenb[41]
*438 la_oenb[42]
*439 la_oenb[43]
*440 la_oenb[44]
*441 la_oenb[45]
*442 la_oenb[46]
*443 la_oenb[47]
*444 la_oenb[48]
*445 la_oenb[49]
*446 la_oenb[4]
*447 la_oenb[50]
*448 la_oenb[51]
*449 la_oenb[52]
*450 la_oenb[53]
*451 la_oenb[54]
*452 la_oenb[55]
*453 la_oenb[56]
*454 la_oenb[57]
*455 la_oenb[58]
*456 la_oenb[59]
*457 la_oenb[5]
*458 la_oenb[60]
*459 la_oenb[61]
*460 la_oenb[62]
*461 la_oenb[63]
*462 la_oenb[64]
*463 la_oenb[65]
*464 la_oenb[66]
*465 la_oenb[67]
*466 la_oenb[68]
*467 la_oenb[69]
*468 la_oenb[6]
*469 la_oenb[70]
*470 la_oenb[71]
*471 la_oenb[72]
*472 la_oenb[73]
*473 la_oenb[74]
*474 la_oenb[75]
*475 la_oenb[76]
*476 la_oenb[77]
*477 la_oenb[78]
*478 la_oenb[79]
*479 la_oenb[7]
*480 la_oenb[80]
*481 la_oenb[81]
*482 la_oenb[82]
*483 la_oenb[83]
*484 la_oenb[84]
*485 la_oenb[85]
*486 la_oenb[86]
*487 la_oenb[87]
*488 la_oenb[88]
*489 la_oenb[89]
*490 la_oenb[8]
*491 la_oenb[90]
*492 la_oenb[91]
*493 la_oenb[92]
*494 la_oenb[93]
*495 la_oenb[94]
*496 la_oenb[95]
*497 la_oenb[96]
*498 la_oenb[97]
*499 la_oenb[98]
*500 la_oenb[99]
*501 la_oenb[9]
*504 wb_clk_i
*505 wb_rst_i
*506 net146
*507 wbs_adr_i[0]
*508 wbs_adr_i[10]
*509 wbs_adr_i[11]
*510 wbs_adr_i[12]
*511 wbs_adr_i[13]
*512 wbs_adr_i[14]
*513 wbs_adr_i[15]
*514 wbs_adr_i[16]
*515 wbs_adr_i[17]
*516 wbs_adr_i[18]
*517 wbs_adr_i[19]
*518 wbs_adr_i[1]
*519 wbs_adr_i[20]
*520 wbs_adr_i[21]
*521 wbs_adr_i[22]
*522 wbs_adr_i[23]
*523 wbs_adr_i[24]
*524 wbs_adr_i[25]
*525 wbs_adr_i[26]
*526 wbs_adr_i[27]
*527 wbs_adr_i[28]
*528 wbs_adr_i[29]
*529 wbs_adr_i[2]
*530 wbs_adr_i[30]
*531 wbs_adr_i[31]
*532 wbs_adr_i[3]
*533 wbs_adr_i[4]
*534 wbs_adr_i[5]
*535 wbs_adr_i[6]
*536 wbs_adr_i[7]
*537 wbs_adr_i[8]
*538 wbs_adr_i[9]
*539 wbs_cyc_i
*540 wbs_dat_i[0]
*541 wbs_dat_i[10]
*542 wbs_dat_i[11]
*543 wbs_dat_i[12]
*544 wbs_dat_i[13]
*545 wbs_dat_i[14]
*546 wbs_dat_i[15]
*547 wbs_dat_i[16]
*548 wbs_dat_i[17]
*549 wbs_dat_i[18]
*550 wbs_dat_i[19]
*551 wbs_dat_i[1]
*552 wbs_dat_i[20]
*553 wbs_dat_i[21]
*554 wbs_dat_i[22]
*555 wbs_dat_i[23]
*556 wbs_dat_i[24]
*557 wbs_dat_i[25]
*558 wbs_dat_i[26]
*559 wbs_dat_i[27]
*560 wbs_dat_i[28]
*561 wbs_dat_i[29]
*562 wbs_dat_i[2]
*563 wbs_dat_i[30]
*564 wbs_dat_i[31]
*565 wbs_dat_i[3]
*566 wbs_dat_i[4]
*567 wbs_dat_i[5]
*568 wbs_dat_i[6]
*569 wbs_dat_i[7]
*570 wbs_dat_i[8]
*571 wbs_dat_i[9]
*572 net147
*573 net157
*574 net158
*575 net159
*576 net160
*577 net161
*578 net162
*579 net163
*580 net164
*581 net165
*582 net166
*583 net148
*584 net167
*585 net168
*586 net169
*587 net170
*588 net171
*589 net172
*590 net173
*591 net174
*592 net175
*593 net176
*594 net149
*595 net177
*596 net178
*597 net150
*598 net151
*599 net152
*600 net153
*601 net154
*602 net155
*603 net156
*604 wbs_sel_i[0]
*605 wbs_sel_i[1]
*606 wbs_sel_i[2]
*607 wbs_sel_i[3]
*608 wbs_stb_i
*609 wbs_we_i
*610 MUL\.PS_R1_inst1\.LUT_inst1\.i0
*611 MUL\.PS_R1_inst1\.LUT_inst1\.i1
*612 MUL\.PS_R1_inst1\.LUT_inst1\.i3
*613 MUL\.PS_R1_inst1\.LUT_inst1\.i4
*614 MUL\.PS_R1_inst1\.LUT_inst10\.I0
*615 MUL\.PS_R1_inst1\.LUT_inst10\.I1
*616 MUL\.PS_R1_inst1\.LUT_inst11\.I1
*617 MUL\.PS_R1_inst1\.LUT_inst12\.I1
*618 MUL\.PS_R1_inst1\.LUT_inst13\.I1
*619 MUL\.PS_R1_inst1\.LUT_inst14\.I1
*620 MUL\.PS_R1_inst1\.LUT_inst15\.I1
*621 MUL\.PS_R1_inst1\.LUT_inst2\.I1
*622 MUL\.PS_R1_inst1\.LUT_inst3\.I1
*623 MUL\.PS_R1_inst1\.LUT_inst4\.I1
*624 MUL\.PS_R1_inst1\.LUT_inst5\.I1
*625 MUL\.PS_R1_inst1\.LUT_inst6\.I1
*626 MUL\.PS_R1_inst1\.LUT_inst7\.I1
*627 MUL\.PS_R1_inst1\.LUT_inst8\.I1
*628 MUL\.PS_Rx_inst2\.LUT_inst1\.i3
*629 MUL\.PS_Rx_inst2\.LUT_inst1\.i4
*630 MUL\.PS_Rx_inst3\.LUT_inst1\.i3
*631 MUL\.PS_Rx_inst3\.LUT_inst1\.i4
*632 MUL\.PS_Rx_inst4\.LUT_inst1\.i3
*633 MUL\.PS_Rx_inst4\.LUT_inst1\.i4
*634 MUL\.PS_Rx_inst5\.LUT_inst1\.i3
*635 MUL\.PS_Rx_inst5\.LUT_inst1\.i4
*636 MUL\.PS_Rx_inst6\.LUT_inst1\.i3
*637 MUL\.PS_Rx_inst6\.LUT_inst1\.i4
*638 MUL\.PS_Rx_inst7\.LUT_inst1\.i3
*639 MUL\.PS_Rx_inst7\.LUT_inst1\.i4
*640 MUL\.PS_Rx_inst8\.LUT_inst1\.i3
*641 MUL\.PS_Rx_inst8\.LUT_inst1\.i4
*642 _0000_
*643 _0001_
*644 _0002_
*645 _0003_
*646 _0004_
*647 _0005_
*648 _0006_
*649 _0007_
*650 _0008_
*651 _0009_
*652 _0010_
*653 _0011_
*654 _0012_
*655 _0013_
*656 _0014_
*657 _0015_
*658 _0016_
*659 _0017_
*660 _0018_
*661 _0019_
*662 _0020_
*663 _0021_
*664 _0022_
*665 _0023_
*666 _0024_
*667 _0025_
*668 _0026_
*669 _0027_
*670 _0028_
*671 _0029_
*672 _0030_
*673 _0031_
*674 _0032_
*675 _0033_
*676 _0034_
*677 _0035_
*678 _0036_
*679 _0037_
*680 _0038_
*681 _0039_
*682 _0040_
*683 _0041_
*684 _0042_
*685 _0043_
*686 _0044_
*687 _0045_
*688 _0046_
*689 _0047_
*690 _0048_
*691 _0049_
*692 _0050_
*693 _0051_
*694 _0052_
*695 _0053_
*696 _0054_
*697 _0055_
*698 _0056_
*699 _0057_
*700 _0058_
*701 _0059_
*702 _0060_
*703 _0061_
*704 _0062_
*705 _0063_
*706 _0064_
*707 _0065_
*708 _0066_
*709 _0067_
*710 _0068_
*711 _0069_
*712 _0070_
*713 _0071_
*714 _0072_
*715 _0073_
*716 _0074_
*717 _0075_
*718 _0076_
*719 _0077_
*720 _0078_
*721 _0079_
*722 _0080_
*723 _0081_
*724 _0082_
*725 _0083_
*726 _0084_
*727 _0085_
*728 _0086_
*729 _0087_
*730 _0088_
*731 _0089_
*732 _0090_
*733 _0091_
*734 _0092_
*735 _0093_
*736 _0094_
*737 _0095_
*738 _0096_
*739 _0097_
*740 _0098_
*741 _0099_
*742 _0100_
*743 _0101_
*744 _0102_
*745 _0103_
*746 _0104_
*747 _0105_
*748 _0106_
*749 _0107_
*750 _0108_
*751 _0109_
*752 _0110_
*753 _0111_
*754 _0112_
*755 _0113_
*756 _0114_
*757 _0115_
*758 _0116_
*759 _0117_
*760 _0118_
*761 _0119_
*762 _0120_
*763 _0121_
*764 _0122_
*765 _0123_
*766 _0124_
*767 _0125_
*768 _0126_
*769 _0127_
*770 _0128_
*771 _0129_
*772 _0130_
*773 _0131_
*774 _0132_
*775 _0133_
*776 _0134_
*777 _0135_
*778 _0136_
*779 _0137_
*780 _0138_
*781 _0139_
*782 _0140_
*783 _0141_
*784 _0142_
*785 _0143_
*786 _0144_
*787 _0145_
*788 _0146_
*789 _0147_
*790 _0148_
*791 _0149_
*792 _0150_
*793 _0151_
*794 _0152_
*795 _0153_
*796 _0154_
*797 _0155_
*798 _0156_
*799 _0157_
*800 _0158_
*801 _0159_
*802 _0160_
*803 _0161_
*804 _0162_
*805 _0163_
*806 _0164_
*807 _0165_
*808 _0166_
*809 _0167_
*810 _0168_
*811 _0169_
*812 _0170_
*813 _0171_
*814 _0172_
*815 _0173_
*816 _0174_
*817 _0175_
*818 _0176_
*819 _0177_
*820 _0178_
*821 _0179_
*822 _0180_
*823 _0181_
*824 _0182_
*825 _0183_
*826 _0184_
*827 _0185_
*828 _0186_
*829 _0187_
*830 _0188_
*831 _0189_
*832 _0190_
*833 _0191_
*834 _0192_
*835 _0193_
*836 _0194_
*837 _0195_
*838 _0196_
*839 _0197_
*840 _0198_
*841 _0199_
*842 _0200_
*843 _0201_
*844 _0202_
*845 _0203_
*846 _0204_
*847 _0205_
*848 _0206_
*849 _0207_
*850 _0208_
*851 _0209_
*852 _0210_
*853 _0211_
*854 _0212_
*855 _0213_
*856 _0214_
*857 _0215_
*858 _0216_
*859 _0217_
*860 _0218_
*861 _0219_
*862 _0220_
*863 _0221_
*864 _0222_
*865 _0223_
*866 _0224_
*867 _0225_
*868 _0226_
*869 _0227_
*870 _0228_
*871 _0229_
*872 _0230_
*873 _0231_
*874 _0232_
*875 _0233_
*876 _0234_
*877 _0235_
*878 _0236_
*879 _0237_
*880 _0238_
*881 _0239_
*882 _0240_
*883 _0241_
*884 _0242_
*885 _0243_
*886 _0244_
*887 _0245_
*888 _0246_
*889 _0247_
*890 _0248_
*891 _0249_
*892 _0250_
*893 _0251_
*894 _0252_
*895 _0253_
*896 _0254_
*897 _0255_
*898 _0256_
*899 _0257_
*900 _0258_
*901 _0259_
*902 _0260_
*903 _0261_
*904 _0262_
*905 _0263_
*906 _0264_
*907 _0265_
*908 _0266_
*909 _0267_
*910 _0268_
*911 _0269_
*912 _0270_
*913 _0271_
*914 _0272_
*915 _0273_
*916 _0274_
*917 _0275_
*918 _0276_
*919 _0277_
*920 _0278_
*921 _0279_
*922 _0280_
*923 _0281_
*924 _0282_
*925 _0283_
*926 _0284_
*927 _0285_
*928 _0286_
*929 _0287_
*930 _0288_
*931 _0289_
*932 _0290_
*933 _0291_
*934 _0292_
*935 _0293_
*936 _0294_
*937 _0295_
*938 _0296_
*939 _0297_
*940 _0298_
*941 _0299_
*942 _0300_
*943 _0301_
*944 _0302_
*945 _0303_
*946 _0304_
*947 _0305_
*948 _0306_
*949 _0307_
*950 _0308_
*951 _0309_
*952 _0310_
*953 _0311_
*954 _0312_
*955 _0313_
*956 _0314_
*957 _0315_
*958 _0316_
*959 _0317_
*960 _0318_
*961 _0319_
*962 _0320_
*963 _0321_
*964 _0322_
*965 _0323_
*966 _0324_
*967 _0325_
*968 _0326_
*969 _0327_
*970 _0328_
*971 _0329_
*972 _0330_
*973 _0331_
*974 _0332_
*975 _0333_
*976 _0334_
*977 _0335_
*978 _0336_
*979 _0337_
*980 _0338_
*981 _0339_
*982 _0340_
*983 _0341_
*984 _0342_
*985 _0343_
*986 _0344_
*987 _0345_
*988 _0346_
*989 _0347_
*990 _0348_
*991 _0349_
*992 _0350_
*993 _0351_
*994 _0352_
*995 _0353_
*996 _0354_
*997 _0355_
*998 _0356_
*999 _0357_
*1000 _0358_
*1001 _0359_
*1002 _0360_
*1003 _0361_
*1004 _0362_
*1005 _0363_
*1006 _0364_
*1007 _0365_
*1008 _0366_
*1009 _0367_
*1010 _0368_
*1011 _0369_
*1012 _0370_
*1013 _0371_
*1014 _0372_
*1015 _0373_
*1016 _0374_
*1017 _0375_
*1018 _0376_
*1019 _0377_
*1020 _0378_
*1021 _0379_
*1022 _0380_
*1023 _0381_
*1024 _0382_
*1025 _0383_
*1026 _0384_
*1027 _0385_
*1028 _0386_
*1029 _0387_
*1030 _0388_
*1031 _0389_
*1032 _0390_
*1033 _0391_
*1034 _0392_
*1035 _0393_
*1036 _0394_
*1037 _0395_
*1038 _0396_
*1039 _0397_
*1040 _0398_
*1041 _0399_
*1042 _0400_
*1043 _0401_
*1044 _0402_
*1045 _0403_
*1046 _0404_
*1047 _0405_
*1048 _0406_
*1049 _0407_
*1050 _0408_
*1051 _0409_
*1052 _0410_
*1053 _0411_
*1054 _0412_
*1055 _0413_
*1056 _0414_
*1057 _0415_
*1058 _0416_
*1059 _0417_
*1060 _0418_
*1061 _0419_
*1062 _0420_
*1063 _0421_
*1064 _0422_
*1065 _0423_
*1066 _0424_
*1067 _0425_
*1068 _0426_
*1069 _0427_
*1070 _0428_
*1071 _0429_
*1072 _0430_
*1073 _0431_
*1074 _0432_
*1075 _0433_
*1076 _0434_
*1077 _0435_
*1078 _0436_
*1079 _0437_
*1080 _0438_
*1081 _0439_
*1082 _0440_
*1083 _0441_
*1084 _0442_
*1085 _0443_
*1086 _0444_
*1087 _0445_
*1088 _0446_
*1089 _0447_
*1090 _0448_
*1091 _0449_
*1092 _0450_
*1093 _0451_
*1094 _0452_
*1095 _0453_
*1096 _0454_
*1097 _0455_
*1098 _0456_
*1099 _0457_
*1100 _0458_
*1101 _0459_
*1102 _0460_
*1103 _0461_
*1104 _0462_
*1105 _0463_
*1106 _0464_
*1107 _0465_
*1108 _0466_
*1109 _0467_
*1110 _0468_
*1111 _0469_
*1112 _0470_
*1113 _0471_
*1114 _0472_
*1115 _0473_
*1116 _0474_
*1117 _0475_
*1118 _0476_
*1119 _0477_
*1120 _0478_
*1121 _0479_
*1122 _0480_
*1123 _0481_
*1124 _0482_
*1125 _0483_
*1126 _0484_
*1127 _0485_
*1128 _0486_
*1129 _0487_
*1130 _0488_
*1131 _0489_
*1132 _0490_
*1133 _0491_
*1134 _0492_
*1135 _0493_
*1136 _0494_
*1137 _0495_
*1138 _0496_
*1139 _0497_
*1140 _0498_
*1141 _0499_
*1142 _0500_
*1143 _0501_
*1144 _0502_
*1145 _0503_
*1146 _0504_
*1147 _0505_
*1148 _0506_
*1149 _0507_
*1150 _0508_
*1151 _0509_
*1152 _0510_
*1153 _0511_
*1154 _0512_
*1155 _0513_
*1156 _0514_
*1157 _0515_
*1158 _0516_
*1159 _0517_
*1160 _0518_
*1161 _0519_
*1162 _0520_
*1163 _0521_
*1164 _0522_
*1165 _0523_
*1166 _0524_
*1167 _0525_
*1168 _0526_
*1169 _0527_
*1170 _0528_
*1171 _0529_
*1172 _0530_
*1173 _0531_
*1174 _0532_
*1175 _0533_
*1176 _0534_
*1177 _0535_
*1178 _0536_
*1179 _0537_
*1180 _0538_
*1181 _0539_
*1182 _0540_
*1183 _0541_
*1184 _0542_
*1185 _0543_
*1186 _0544_
*1187 _0545_
*1188 _0546_
*1189 _0547_
*1190 _0548_
*1191 _0549_
*1192 _0550_
*1193 _0551_
*1194 _0552_
*1195 _0553_
*1196 _0554_
*1197 _0555_
*1198 _0556_
*1199 _0557_
*1200 _0558_
*1201 _0559_
*1202 _0560_
*1203 _0561_
*1204 _0562_
*1205 _0563_
*1206 _0564_
*1207 _0565_
*1208 _0566_
*1209 _0567_
*1210 _0568_
*1211 _0569_
*1212 _0570_
*1213 _0571_
*1214 _0572_
*1215 _0573_
*1216 _0574_
*1217 _0575_
*1218 _0576_
*1219 _0577_
*1220 _0578_
*1221 _0579_
*1222 _0580_
*1223 _0581_
*1224 _0582_
*1225 _0583_
*1226 _0584_
*1227 _0585_
*1228 _0586_
*1229 _0587_
*1230 _0588_
*1231 _0589_
*1232 _0590_
*1233 _0591_
*1234 _0592_
*1235 _0593_
*1236 _0594_
*1237 _0595_
*1238 _0596_
*1239 _0597_
*1240 _0598_
*1241 _0599_
*1242 _0600_
*1243 _0601_
*1244 _0602_
*1245 _0603_
*1246 _0604_
*1247 _0605_
*1248 _0606_
*1249 _0607_
*1250 _0608_
*1251 _0609_
*1252 _0610_
*1253 _0611_
*1254 _0612_
*1255 _0613_
*1256 _0614_
*1257 _0615_
*1258 _0616_
*1259 _0617_
*1260 _0618_
*1261 _0619_
*1262 _0620_
*1263 _0621_
*1264 _0622_
*1265 _0623_
*1266 _0624_
*1267 _0625_
*1268 _0626_
*1269 _0627_
*1270 _0628_
*1271 _0629_
*1272 _0630_
*1273 _0631_
*1274 _0632_
*1275 _0633_
*1276 _0634_
*1277 _0635_
*1278 _0636_
*1279 _0637_
*1280 _0638_
*1281 _0639_
*1282 _0640_
*1283 _0641_
*1284 _0642_
*1285 _0643_
*1286 _0644_
*1287 _0645_
*1288 _0646_
*1289 _0647_
*1290 _0648_
*1291 _0649_
*1292 _0650_
*1293 _0651_
*1294 _0652_
*1295 _0653_
*1296 _0654_
*1297 _0655_
*1298 _0656_
*1299 _0657_
*1300 _0658_
*1301 _0659_
*1302 _0660_
*1303 _0661_
*1304 _0662_
*1305 _0663_
*1306 _0664_
*1307 _0665_
*1308 _0666_
*1309 _0667_
*1310 _0668_
*1311 _0669_
*1312 _0670_
*1313 _0671_
*1314 _0672_
*1315 _0673_
*1316 _0674_
*1317 _0675_
*1318 _0676_
*1319 _0677_
*1320 _0678_
*1321 _0679_
*1322 _0680_
*1323 _0681_
*1324 _0682_
*1325 _0683_
*1326 _0684_
*1327 _0685_
*1328 _0686_
*1329 _0687_
*1330 _0688_
*1331 _0689_
*1332 _0690_
*1333 _0691_
*1334 _0692_
*1335 _0693_
*1336 _0694_
*1337 _0695_
*1338 _0696_
*1339 _0697_
*1340 _0698_
*1341 _0699_
*1342 _0700_
*1343 _0701_
*1344 _0702_
*1345 _0703_
*1346 _0704_
*1347 _0705_
*1348 _0706_
*1349 _0707_
*1350 _0708_
*1351 _0709_
*1352 _0710_
*1353 _0711_
*1354 _0712_
*1355 _0713_
*1356 _0714_
*1357 _0715_
*1358 _0716_
*1359 _0717_
*1360 _0718_
*1361 _0719_
*1362 _0720_
*1363 _0721_
*1364 _0722_
*1365 _0723_
*1366 _0724_
*1367 _0725_
*1368 _0726_
*1369 _0727_
*1370 _0728_
*1371 _0729_
*1372 _0730_
*1373 _0731_
*1374 _0732_
*1375 _0733_
*1376 _0734_
*1377 _0735_
*1378 _0736_
*1379 _0737_
*1380 _0738_
*1381 _0739_
*1382 _0740_
*1383 _0741_
*1384 _0742_
*1385 _0743_
*1386 _0744_
*1387 _0745_
*1388 _0746_
*1389 _0747_
*1390 _0748_
*1391 _0749_
*1392 _0750_
*1393 _0751_
*1394 _0752_
*1395 _0753_
*1396 _0754_
*1397 _0755_
*1398 _0756_
*1399 _0757_
*1400 _0758_
*1401 _0759_
*1402 _0760_
*1403 _0761_
*1404 _0762_
*1405 _0763_
*1406 _0764_
*1407 _0765_
*1408 _0766_
*1409 _0767_
*1410 _0768_
*1411 _0769_
*1412 _0770_
*1413 _0771_
*1414 _0772_
*1415 _0773_
*1416 _0774_
*1417 _0775_
*1418 _0776_
*1419 _0777_
*1420 _0778_
*1421 _0779_
*1422 _0780_
*1423 _0781_
*1424 _0782_
*1425 _0783_
*1426 _0784_
*1427 _0785_
*1428 _0786_
*1429 _0787_
*1430 _0788_
*1431 _0789_
*1432 _0790_
*1433 _0791_
*1434 _0792_
*1435 _0793_
*1436 _0794_
*1437 _0795_
*1438 _0796_
*1439 _0797_
*1440 _0798_
*1441 _0799_
*1442 _0800_
*1443 _0801_
*1444 _0802_
*1445 _0803_
*1446 _0804_
*1447 _0805_
*1448 _0806_
*1449 clknet_0_wb_clk_i
*1450 clknet_2_0__leaf_wb_clk_i
*1451 clknet_2_1__leaf_wb_clk_i
*1452 clknet_2_2__leaf_wb_clk_i
*1453 clknet_2_3__leaf_wb_clk_i
*1454 count2\[0\]
*1455 count2\[1\]
*1456 count2\[2\]
*1457 count2\[3\]
*1458 count2\[4\]
*1459 count2\[5\]
*1460 count\[0\]
*1461 count\[1\]
*1462 count\[2\]
*1463 count\[3\]
*1464 count\[4\]
*1465 count\[5\]
*1466 net1
*1467 net2
*1468 net3
*1469 net4
*1470 net5
*1471 net6
*1472 net7
*1473 ANTENNA__0818__A3
*1474 ANTENNA__0820__A2
*1475 ANTENNA__0821__A
*1476 ANTENNA__0825__A
*1477 ANTENNA__0830__A
*1478 ANTENNA__0840__A
*1479 ANTENNA__0858__A
*1480 ANTENNA__0863__A
*1481 ANTENNA__0866__B2
*1482 ANTENNA__0870__A1
*1483 ANTENNA__0872__A
*1484 ANTENNA__0878__A
*1485 ANTENNA__0879__A1
*1486 ANTENNA__0891__A0
*1487 ANTENNA__0894__A0
*1488 ANTENNA__0894__S
*1489 ANTENNA__0905__A1
*1490 ANTENNA__0909__B2
*1491 ANTENNA__0914__B2
*1492 ANTENNA__0915__A1
*1493 ANTENNA__0919__A
*1494 ANTENNA__0921__A
*1495 ANTENNA__0924__B2
*1496 ANTENNA__0925__A
*1497 ANTENNA__0927__A
*1498 ANTENNA__0928__B2
*1499 ANTENNA__0930__A
*1500 ANTENNA__0931__A0
*1501 ANTENNA__0931__A1
*1502 ANTENNA__0934__A
*1503 ANTENNA__0935__A
*1504 ANTENNA__0936__A1
*1505 ANTENNA__0938__A
*1506 ANTENNA__0939__B2
*1507 ANTENNA__0942__B2
*1508 ANTENNA__0945__A0
*1509 ANTENNA__0945__A1
*1510 ANTENNA__0948__A
*1511 ANTENNA__0949__A0
*1512 ANTENNA__0949__A1
*1513 ANTENNA__0949__S
*1514 ANTENNA__0953__B2
*1515 ANTENNA__0954__A
*1516 ANTENNA__0956__B2
*1517 ANTENNA__0959__A0
*1518 ANTENNA__0959__A1
*1519 ANTENNA__0961__A
*1520 ANTENNA__0962__A
*1521 ANTENNA__0963__A1
*1522 ANTENNA__0964__A
*1523 ANTENNA__0965__A
*1524 ANTENNA__0966__B2
*1525 ANTENNA__0967__A
*1526 ANTENNA__0968__B2
*1527 ANTENNA__0969__A
*1528 ANTENNA__0970__A0
*1529 ANTENNA__0970__A1
*1530 ANTENNA__0973__A
*1531 ANTENNA__0974__A
*1532 ANTENNA__0975__A
*1533 ANTENNA__0986__A
*1534 ANTENNA__0987__A
*1535 ANTENNA__0988__A
*1536 ANTENNA__0989__A
*1537 ANTENNA__0990__A
*1538 ANTENNA__0991__A
*1539 ANTENNA__0992__A
*1540 ANTENNA__0993__A
*1541 ANTENNA__0994__A
*1542 ANTENNA__0995__A
*1543 ANTENNA__0996__A
*1544 ANTENNA__0997__A
*1545 ANTENNA__0998__A
*1546 ANTENNA__0999__A
*1547 ANTENNA__1000__A
*1548 ANTENNA__1001__A
*1549 ANTENNA__1002__A
*1550 ANTENNA__1003__A
*1551 ANTENNA__1004__A
*1552 ANTENNA__1005__A
*1553 ANTENNA__1006__A
*1554 ANTENNA__1007__A
*1555 ANTENNA__1008__A
*1556 ANTENNA__1009__A
*1557 ANTENNA__1020__A2
*1558 ANTENNA__1022__A1
*1559 ANTENNA__1023__A1
*1560 ANTENNA__1023__B2
*1561 ANTENNA__1033__A2
*1562 ANTENNA__1033__B1
*1563 ANTENNA__1038__A1
*1564 ANTENNA__1046__B1
*1565 ANTENNA__1048__A1
*1566 ANTENNA__1051__B
*1567 ANTENNA__1052__B1
*1568 ANTENNA__1053__A0
*1569 ANTENNA__1054__A1
*1570 ANTENNA__1055__A1
*1571 ANTENNA__1056__A1
*1572 ANTENNA__1056__B2
*1573 ANTENNA__1059__A1
*1574 ANTENNA__1060__A1
*1575 ANTENNA__1060__B2
*1576 ANTENNA__1063__B
*1577 ANTENNA__1065__A1
*1578 ANTENNA__1066__A1
*1579 ANTENNA__1066__B2
*1580 ANTENNA__1069__A1
*1581 ANTENNA__1071__A
*1582 ANTENNA__1072__A2
*1583 ANTENNA__1073__A
*1584 ANTENNA__1074__A1
*1585 ANTENNA__1074__A2
*1586 ANTENNA__1074__A3
*1587 ANTENNA__1075__A
*1588 ANTENNA__1076__A
*1589 ANTENNA__1076__B
*1590 ANTENNA__1077__A1_N
*1591 ANTENNA__1078__A1
*1592 ANTENNA__1080__A
*1593 ANTENNA__1081__A
*1594 ANTENNA__1083__B
*1595 ANTENNA__1084__B
*1596 ANTENNA__1085__A1
*1597 ANTENNA__1086__A1
*1598 ANTENNA__1090__B2
*1599 ANTENNA__1101__A1
*1600 ANTENNA__1102__B2
*1601 ANTENNA__1112__A1
*1602 ANTENNA__1114__B2
*1603 ANTENNA__1134__A1
*1604 ANTENNA__1136__A
*1605 ANTENNA__1139__A
*1606 ANTENNA__1141__B1
*1607 ANTENNA__1144__A1
*1608 ANTENNA__1144__B1
*1609 ANTENNA__1144__B2
*1610 ANTENNA__1149__A2
*1611 ANTENNA__1149__B1
*1612 ANTENNA__1150__A2
*1613 ANTENNA__1150__B1
*1614 ANTENNA__1151__A1
*1615 ANTENNA__1152__B2
*1616 ANTENNA__1158__A1
*1617 ANTENNA__1163__A
*1618 ANTENNA__1165__A1
*1619 ANTENNA__1166__A1
*1620 ANTENNA__1166__B1
*1621 ANTENNA__1166__B2
*1622 ANTENNA__1170__A1
*1623 ANTENNA__1172__B2
*1624 ANTENNA__1177__A2
*1625 ANTENNA__1177__B1
*1626 ANTENNA__1178__A1
*1627 ANTENNA__1178__A2
*1628 ANTENNA__1178__B1
*1629 ANTENNA__1182__B
*1630 ANTENNA__1183__A2
*1631 ANTENNA__1185__B
*1632 ANTENNA__1186__B
*1633 ANTENNA__1188__A
*1634 ANTENNA__1191__A1
*1635 ANTENNA__1191__A2
*1636 ANTENNA__1191__B1
*1637 ANTENNA__1191__B2
*1638 ANTENNA__1192__C
*1639 ANTENNA__1194__A1
*1640 ANTENNA__1194__A2
*1641 ANTENNA__1194__C1
*1642 ANTENNA__1196__A
*1643 ANTENNA__1197__A1
*1644 ANTENNA__1198__A1
*1645 ANTENNA__1198__B1
*1646 ANTENNA__1198__B2
*1647 ANTENNA__1199__A1
*1648 ANTENNA__1199__A2
*1649 ANTENNA__1199__B1
*1650 ANTENNA__1200__A1
*1651 ANTENNA__1200__A2
*1652 ANTENNA__1200__B1
*1653 ANTENNA__1200__B2
*1654 ANTENNA__1204__A1
*1655 ANTENNA__1208__A1
*1656 ANTENNA__1213__B
*1657 ANTENNA__1214__A2
*1658 ANTENNA__1215__A2
*1659 ANTENNA__1217__A1
*1660 ANTENNA__1217__A2
*1661 ANTENNA__1217__B1
*1662 ANTENNA__1217__B2
*1663 ANTENNA__1218__A1
*1664 ANTENNA__1218__A2
*1665 ANTENNA__1218__C1
*1666 ANTENNA__1219__A1
*1667 ANTENNA__1220__A1
*1668 ANTENNA__1220__B1
*1669 ANTENNA__1220__B2
*1670 ANTENNA__1221__A1
*1671 ANTENNA__1222__B2
*1672 ANTENNA__1225__A1
*1673 ANTENNA__1226__A1
*1674 ANTENNA__1226__B2
*1675 ANTENNA__1236__B
*1676 ANTENNA__1238__A
*1677 ANTENNA__1240__B
*1678 ANTENNA__1241__B
*1679 ANTENNA__1242__A1
*1680 ANTENNA__1243__B1
*1681 ANTENNA__1244__A0
*1682 ANTENNA__1247__A
*1683 ANTENNA__1248__A1
*1684 ANTENNA__1248__B1
*1685 ANTENNA__1250__A1
*1686 ANTENNA__1250__A2
*1687 ANTENNA__1251__A
*1688 ANTENNA__1253__A1_N
*1689 ANTENNA__1256__A1
*1690 ANTENNA__1256__B1
*1691 ANTENNA__1258__A1
*1692 ANTENNA__1258__A2
*1693 ANTENNA__1259__A
*1694 ANTENNA__1260__A
*1695 ANTENNA__1261__A1
*1696 ANTENNA__1262__A1
*1697 ANTENNA__1262__B2
*1698 ANTENNA__1264__A1
*1699 ANTENNA__1264__B2
*1700 ANTENNA__1269__A1
*1701 ANTENNA__1269__A2
*1702 ANTENNA__1269__B1
*1703 ANTENNA__1270__A1
*1704 ANTENNA__1270__A2
*1705 ANTENNA__1270__B1
*1706 ANTENNA__1270__B2
*1707 ANTENNA__1274__B1
*1708 ANTENNA__1276__A1
*1709 ANTENNA__1276__A2
*1710 ANTENNA__1279__A1
*1711 ANTENNA__1280__A1
*1712 ANTENNA__1280__B2
*1713 ANTENNA__1283__B1
*1714 ANTENNA__1284__A1
*1715 ANTENNA__1288__A1
*1716 ANTENNA__1290__A1
*1717 ANTENNA__1291__A1
*1718 ANTENNA__1291__B1
*1719 ANTENNA__1291__B2
*1720 ANTENNA__1292__A2
*1721 ANTENNA__1292__B1
*1722 ANTENNA__1293__A1
*1723 ANTENNA__1293__A2
*1724 ANTENNA__1293__B1
*1725 ANTENNA__1294__A1
*1726 ANTENNA__1295__B2
*1727 ANTENNA__1298__A1
*1728 ANTENNA__1299__A1
*1729 ANTENNA__1299__B2
*1730 ANTENNA__1308__A1
*1731 ANTENNA__1308__A2
*1732 ANTENNA__1308__B1
*1733 ANTENNA__1309__A1
*1734 ANTENNA__1309__A2
*1735 ANTENNA__1309__B1
*1736 ANTENNA__1309__B2
*1737 ANTENNA__1311__A
*1738 ANTENNA__1321__A1
*1739 ANTENNA__1322__A1
*1740 ANTENNA__1322__B2
*1741 ANTENNA__1325__A1
*1742 ANTENNA__1325__A2
*1743 ANTENNA__1325__B1
*1744 ANTENNA__1326__A1
*1745 ANTENNA__1326__A2
*1746 ANTENNA__1326__B1
*1747 ANTENNA__1326__B2
*1748 ANTENNA__1327__A
*1749 ANTENNA__1328__A1
*1750 ANTENNA__1329__A1
*1751 ANTENNA__1329__B1
*1752 ANTENNA__1329__B2
*1753 ANTENNA__1330__A2
*1754 ANTENNA__1330__B1
*1755 ANTENNA__1331__A2
*1756 ANTENNA__1331__B1
*1757 ANTENNA__1332__A1
*1758 ANTENNA__1333__A1
*1759 ANTENNA__1333__B2
*1760 ANTENNA__1335__A1
*1761 ANTENNA__1336__A1
*1762 ANTENNA__1336__B2
*1763 ANTENNA__1339__A
*1764 ANTENNA__1346__A1
*1765 ANTENNA__1346__B2
*1766 ANTENNA__1347__A1
*1767 ANTENNA__1348__A
*1768 ANTENNA__1351__A
*1769 ANTENNA__1352__A
*1770 ANTENNA__1354__A1
*1771 ANTENNA__1355__A1
*1772 ANTENNA__1355__B1
*1773 ANTENNA__1355__B2
*1774 ANTENNA__1356__A1
*1775 ANTENNA__1356__A2
*1776 ANTENNA__1356__B1
*1777 ANTENNA__1357__A2
*1778 ANTENNA__1357__B1
*1779 ANTENNA__1357__B2
*1780 ANTENNA__1361__A1
*1781 ANTENNA__1363__A
*1782 ANTENNA__1364__A1
*1783 ANTENNA__1364__C1
*1784 ANTENNA__1368__A1
*1785 ANTENNA__1369__A1
*1786 ANTENNA__1369__B2
*1787 ANTENNA__1375__A1
*1788 ANTENNA__1375__A2
*1789 ANTENNA__1375__B1
*1790 ANTENNA__1376__A1
*1791 ANTENNA__1376__A2
*1792 ANTENNA__1376__B1
*1793 ANTENNA__1376__B2
*1794 ANTENNA__1377__A
*1795 ANTENNA__1378__A1
*1796 ANTENNA__1378__B2
*1797 ANTENNA__1379__A1
*1798 ANTENNA__1382__B1
*1799 ANTENNA__1383__A
*1800 ANTENNA__1384__A1
*1801 ANTENNA__1385__A1
*1802 ANTENNA__1385__B2
*1803 ANTENNA__1386__A1
*1804 ANTENNA__1386__A2
*1805 ANTENNA__1386__B1
*1806 ANTENNA__1387__A1
*1807 ANTENNA__1387__A2
*1808 ANTENNA__1387__B1
*1809 ANTENNA__1387__B2
*1810 ANTENNA__1391__A2
*1811 ANTENNA__1391__B1
*1812 ANTENNA__1393__A
*1813 ANTENNA__1395__A1
*1814 ANTENNA__1396__A1
*1815 ANTENNA__1396__B2
*1816 ANTENNA__1400__A1
*1817 ANTENNA__1401__A1
*1818 ANTENNA__1401__B1
*1819 ANTENNA__1401__B2
*1820 ANTENNA__1404__A1
*1821 ANTENNA__1404__A2
*1822 ANTENNA__1404__B1
*1823 ANTENNA__1405__A1
*1824 ANTENNA__1405__A2
*1825 ANTENNA__1405__B1
*1826 ANTENNA__1405__B2
*1827 ANTENNA__1407__A
*1828 ANTENNA__1416__A
*1829 ANTENNA__1418__A2
*1830 ANTENNA__1418__B1
*1831 ANTENNA__1422__A1
*1832 ANTENNA__1425__A1
*1833 ANTENNA__1425__A2