*SPEF "ieee 1481-1999"
*DESIGN "user_proj_asic"
*DATE "11:11:11 Fri 11 11, 1111"
*VENDOR "OpenRCX"
*PROGRAM "Parallel Extraction"
*VERSION "1.0"
*DESIGN_FLOW "NAME_SCOPE LOCAL" "PIN_CAP NONE"
*DIVIDER /
*DELIMITER :
*BUS_DELIMITER []
*T_UNIT 1 NS
*C_UNIT 1 PF
*R_UNIT 1 OHM
*L_UNIT 1 HENRY

*NAME_MAP
*1 A_PAD
*2 B_PAD
*3 OUT_1
*4 OUT_2
*5 sel
*6 user_clock2
*9 wb_clk_i
*10 wb_rst_i
*11 MUL\.PS_R1_inst1\.LUT_inst1\.i0
*12 MUL\.PS_R1_inst1\.LUT_inst1\.i1
*13 MUL\.PS_R1_inst1\.LUT_inst1\.i3
*14 MUL\.PS_R1_inst1\.LUT_inst1\.i4
*15 MUL\.PS_R1_inst1\.LUT_inst10\.I0
*16 MUL\.PS_R1_inst1\.LUT_inst10\.I1
*17 MUL\.PS_R1_inst1\.LUT_inst11\.I1
*18 MUL\.PS_R1_inst1\.LUT_inst12\.I1
*19 MUL\.PS_R1_inst1\.LUT_inst13\.I1
*20 MUL\.PS_R1_inst1\.LUT_inst14\.I1
*21 MUL\.PS_R1_inst1\.LUT_inst15\.I1
*22 MUL\.PS_R1_inst1\.LUT_inst2\.I1
*23 MUL\.PS_R1_inst1\.LUT_inst3\.I1
*24 MUL\.PS_R1_inst1\.LUT_inst4\.I1
*25 MUL\.PS_R1_inst1\.LUT_inst5\.I1
*26 MUL\.PS_R1_inst1\.LUT_inst6\.I1
*27 MUL\.PS_R1_inst1\.LUT_inst7\.I1
*28 MUL\.PS_R1_inst1\.LUT_inst8\.I1
*29 MUL\.PS_Rx_inst2\.LUT_inst1\.i3
*30 MUL\.PS_Rx_inst2\.LUT_inst1\.i4
*31 MUL\.PS_Rx_inst3\.LUT_inst1\.i3
*32 MUL\.PS_Rx_inst3\.LUT_inst1\.i4
*33 MUL\.PS_Rx_inst4\.LUT_inst1\.i3
*34 MUL\.PS_Rx_inst4\.LUT_inst1\.i4
*35 MUL\.PS_Rx_inst5\.LUT_inst1\.i3
*36 MUL\.PS_Rx_inst5\.LUT_inst1\.i4
*37 MUL\.PS_Rx_inst6\.LUT_inst1\.i3
*38 MUL\.PS_Rx_inst6\.LUT_inst1\.i4
*39 MUL\.PS_Rx_inst7\.LUT_inst1\.i3
*40 MUL\.PS_Rx_inst7\.LUT_inst1\.i4
*41 MUL\.PS_Rx_inst8\.LUT_inst1\.i3
*42 MUL\.PS_Rx_inst8\.LUT_inst1\.i4
*43 _0000_
*44 _0001_
*45 _0002_
*46 _0003_
*47 _0004_
*48 _0005_
*49 _0006_
*50 _0007_
*51 _0008_
*52 _0009_
*53 _0010_
*54 _0011_
*55 _0012_
*56 _0013_
*57 _0014_
*58 _0015_
*59 _0016_
*60 _0017_
*61 _0018_
*62 _0019_
*63 _0020_
*64 _0021_
*65 _0022_
*66 _0023_
*67 _0024_
*68 _0025_
*69 _0026_
*70 _0027_
*71 _0028_
*72 _0029_
*73 _0030_
*74 _0031_
*75 _0032_
*76 _0033_
*77 _0034_
*78 _0035_
*79 _0036_
*80 _0037_
*81 _0038_
*82 _0039_
*83 _0040_
*84 _0041_
*85 _0042_
*86 _0043_
*87 _0044_
*88 _0045_
*89 _0046_
*90 _0047_
*91 _0048_
*92 _0049_
*93 _0050_
*94 _0051_
*95 _0052_
*96 _0053_
*97 _0054_
*98 _0055_
*99 _0056_
*100 _0057_
*101 _0058_
*102 _0059_
*103 _0060_
*104 _0061_
*105 _0062_
*106 _0063_
*107 _0064_
*108 _0065_
*109 _0066_
*110 _0067_
*111 _0068_
*112 _0069_
*113 _0070_
*114 _0071_
*115 _0072_
*116 _0073_
*117 _0074_
*118 _0075_
*119 _0076_
*120 _0077_
*121 _0078_
*122 _0079_
*123 _0080_
*124 _0081_
*125 _0082_
*126 _0083_
*127 _0084_
*128 _0085_
*129 _0086_
*130 _0087_
*131 _0088_
*132 _0089_
*133 _0090_
*134 _0091_
*135 _0092_
*136 _0093_
*137 _0094_
*138 _0095_
*139 _0096_
*140 _0097_
*141 _0098_
*142 _0099_
*143 _0100_
*144 _0101_
*145 _0102_
*146 _0103_
*147 _0104_
*148 _0105_
*149 _0106_
*150 _0107_
*151 _0108_
*152 _0109_
*153 _0110_
*154 _0111_
*155 _0112_
*156 _0113_
*157 _0114_
*158 _0115_
*159 _0116_
*160 _0117_
*161 _0118_
*162 _0119_
*163 _0120_
*164 _0121_
*165 _0122_
*166 _0123_
*167 _0124_
*168 _0125_
*169 _0126_
*170 _0127_
*171 _0128_
*172 _0129_
*173 _0130_
*174 _0131_
*175 _0132_
*176 _0133_
*177 _0134_
*178 _0135_
*179 _0136_
*180 _0137_
*181 _0138_
*182 _0139_
*183 _0140_
*184 _0141_
*185 _0142_
*186 _0143_
*187 _0144_
*188 _0145_
*189 _0146_
*190 _0147_
*191 _0148_
*192 _0149_
*193 _0150_
*194 _0151_
*195 _0152_
*196 _0153_
*197 _0154_
*198 _0155_
*199 _0156_
*200 _0157_
*201 _0158_
*202 _0159_
*203 _0160_
*204 _0161_
*205 _0162_
*206 _0163_
*207 _0164_
*208 _0165_
*209 _0166_
*210 _0167_
*211 _0168_
*212 _0169_
*213 _0170_
*214 _0171_
*215 _0172_
*216 _0173_
*217 _0174_
*218 _0175_
*219 _0176_
*220 _0177_
*221 _0178_
*222 _0179_
*223 _0180_
*224 _0181_
*225 _0182_
*226 _0183_
*227 _0184_
*228 _0185_
*229 _0186_
*230 _0187_
*231 _0188_
*232 _0189_
*233 _0190_
*234 _0191_
*235 _0192_
*236 _0193_
*237 _0194_
*238 _0195_
*239 _0196_
*240 _0197_
*241 _0198_
*242 _0199_
*243 _0200_
*244 _0201_
*245 _0202_
*246 _0203_
*247 _0204_
*248 _0205_
*249 _0206_
*250 _0207_
*251 _0208_
*252 _0209_
*253 _0210_
*254 _0211_
*255 _0212_
*256 _0213_
*257 _0214_
*258 _0215_
*259 _0216_
*260 _0217_
*261 _0218_
*262 _0219_
*263 _0220_
*264 _0221_
*265 _0222_
*266 _0223_
*267 _0224_
*268 _0225_
*269 _0226_
*270 _0227_
*271 _0228_
*272 _0229_
*273 _0230_
*274 _0231_
*275 _0232_
*276 _0233_
*277 _0234_
*278 _0235_
*279 _0236_
*280 _0237_
*281 _0238_
*282 _0239_
*283 _0240_
*284 _0241_
*285 _0242_
*286 _0243_
*287 _0244_
*288 _0245_
*289 _0246_
*290 _0247_
*291 _0248_
*292 _0249_
*293 _0250_
*294 _0251_
*295 _0252_
*296 _0253_
*297 _0254_
*298 _0255_
*299 _0256_
*300 _0257_
*301 _0258_
*302 _0259_
*303 _0260_
*304 _0261_
*305 _0262_
*306 _0263_
*307 _0264_
*308 _0265_
*309 _0266_
*310 _0267_
*311 _0268_
*312 _0269_
*313 _0270_
*314 _0271_
*315 _0272_
*316 _0273_
*317 _0274_
*318 _0275_
*319 _0276_
*320 _0277_
*321 _0278_
*322 _0279_
*323 _0280_
*324 _0281_
*325 _0282_
*326 _0283_
*327 _0284_
*328 _0285_
*329 _0286_
*330 _0287_
*331 _0288_
*332 _0289_
*333 _0290_
*334 _0291_
*335 _0292_
*336 _0293_
*337 _0294_
*338 _0295_
*339 _0296_
*340 _0297_
*341 _0298_
*342 _0299_
*343 _0300_
*344 _0301_
*345 _0302_
*346 _0303_
*347 _0304_
*348 _0305_
*349 _0306_
*350 _0307_
*351 _0308_
*352 _0309_
*353 _0310_
*354 _0311_
*355 _0312_
*356 _0313_
*357 _0314_
*358 _0315_
*359 _0316_
*360 _0317_
*361 _0318_
*362 _0319_
*363 _0320_
*364 _0321_
*365 _0322_
*366 _0323_
*367 _0324_
*368 _0325_
*369 _0326_
*370 _0327_
*371 _0328_
*372 _0329_
*373 _0330_
*374 _0331_
*375 _0332_
*376 _0333_
*377 _0334_
*378 _0335_
*379 _0336_
*380 _0337_
*381 _0338_
*382 _0339_
*383 _0340_
*384 _0341_
*385 _0342_
*386 _0343_
*387 _0344_
*388 _0345_
*389 _0346_
*390 _0347_
*391 _0348_
*392 _0349_
*393 _0350_
*394 _0351_
*395 _0352_
*396 _0353_
*397 _0354_
*398 _0355_
*399 _0356_
*400 _0357_
*401 _0358_
*402 _0359_
*403 _0360_
*404 _0361_
*405 _0362_
*406 _0363_
*407 _0364_
*408 _0365_
*409 _0366_
*410 _0367_
*411 _0368_
*412 _0369_
*413 _0370_
*414 _0371_
*415 _0372_
*416 _0373_
*417 _0374_
*418 _0375_
*419 _0376_
*420 _0377_
*421 _0378_
*422 _0379_
*423 _0380_
*424 _0381_
*425 _0382_
*426 _0383_
*427 _0384_
*428 _0385_
*429 _0386_
*430 _0387_
*431 _0388_
*432 _0389_
*433 _0390_
*434 _0391_
*435 _0392_
*436 _0393_
*437 _0394_
*438 _0395_
*439 _0396_
*440 _0397_
*441 _0398_
*442 _0399_
*443 _0400_
*444 _0401_
*445 _0402_
*446 _0403_
*447 _0404_
*448 _0405_
*449 _0406_
*450 _0407_
*451 _0408_
*452 _0409_
*453 _0410_
*454 _0411_
*455 _0412_
*456 _0413_
*457 _0414_
*458 _0415_
*459 _0416_
*460 _0417_
*461 _0418_
*462 _0419_
*463 _0420_
*464 _0421_
*465 _0422_
*466 _0423_
*467 _0424_
*468 _0425_
*469 _0426_
*470 _0427_
*471 _0428_
*472 _0429_
*473 _0430_
*474 _0431_
*475 _0432_
*476 _0433_
*477 _0434_
*478 _0435_
*479 _0436_
*480 _0437_
*481 _0438_
*482 _0439_
*483 _0440_
*484 _0441_
*485 _0442_
*486 _0443_
*487 _0444_
*488 _0445_
*489 _0446_
*490 _0447_
*491 _0448_
*492 _0449_
*493 _0450_
*494 _0451_
*495 _0452_
*496 _0453_
*497 _0454_
*498 _0455_
*499 _0456_
*500 _0457_
*501 _0458_
*502 _0459_
*503 _0460_
*504 _0461_
*505 _0462_
*506 _0463_
*507 _0464_
*508 _0465_
*509 _0466_
*510 _0467_
*511 _0468_
*512 _0469_
*513 _0470_
*514 _0471_
*515 _0472_
*516 _0473_
*517 _0474_
*518 _0475_
*519 _0476_
*520 _0477_
*521 _0478_
*522 _0479_
*523 _0480_
*524 _0481_
*525 _0482_
*526 _0483_
*527 _0484_
*528 _0485_
*529 _0486_
*530 _0487_
*531 _0488_
*532 _0489_
*533 _0490_
*534 _0491_
*535 _0492_
*536 _0493_
*537 _0494_
*538 _0495_
*539 _0496_
*540 _0497_
*541 _0498_
*542 _0499_
*543 _0500_
*544 _0501_
*545 _0502_
*546 _0503_
*547 _0504_
*548 _0505_
*549 _0506_
*550 _0507_
*551 _0508_
*552 _0509_
*553 _0510_
*554 _0511_
*555 _0512_
*556 _0513_
*557 _0514_
*558 _0515_
*559 _0516_
*560 _0517_
*561 _0518_
*562 _0519_
*563 _0520_
*564 _0521_
*565 _0522_
*566 _0523_
*567 _0524_
*568 _0525_
*569 _0526_
*570 _0527_
*571 _0528_
*572 _0529_
*573 _0530_
*574 _0531_
*575 _0532_
*576 _0533_
*577 _0534_
*578 _0535_
*579 _0536_
*580 _0537_
*581 _0538_
*582 _0539_
*583 _0540_
*584 _0541_
*585 _0542_
*586 _0543_
*587 _0544_
*588 _0545_
*589 _0546_
*590 _0547_
*591 _0548_
*592 _0549_
*593 _0550_
*594 _0551_
*595 _0552_
*596 _0553_
*597 _0554_
*598 _0555_
*599 _0556_
*600 _0557_
*601 _0558_
*602 _0559_
*603 _0560_
*604 _0561_
*605 _0562_
*606 _0563_
*607 _0564_
*608 _0565_
*609 _0566_
*610 _0567_
*611 _0568_
*612 _0569_
*613 _0570_
*614 _0571_
*615 _0572_
*616 _0573_
*617 _0574_
*618 _0575_
*619 _0576_
*620 _0577_
*621 _0578_
*622 _0579_
*623 _0580_
*624 _0581_
*625 _0582_
*626 _0583_
*627 _0584_
*628 _0585_
*629 _0586_
*630 _0587_
*631 _0588_
*632 _0589_
*633 _0590_
*634 _0591_
*635 _0592_
*636 _0593_
*637 _0594_
*638 _0595_
*639 _0596_
*640 _0597_
*641 _0598_
*642 _0599_
*643 _0600_
*644 _0601_
*645 _0602_
*646 _0603_
*647 _0604_
*648 _0605_
*649 _0606_
*650 _0607_
*651 _0608_
*652 _0609_
*653 _0610_
*654 _0611_
*655 _0612_
*656 _0613_
*657 _0614_
*658 _0615_
*659 _0616_
*660 _0617_
*661 _0618_
*662 _0619_
*663 _0620_
*664 _0621_
*665 _0622_
*666 _0623_
*667 _0624_
*668 _0625_
*669 _0626_
*670 _0627_
*671 _0628_
*672 _0629_
*673 _0630_
*674 _0631_
*675 _0632_
*676 _0633_
*677 _0634_
*678 _0635_
*679 _0636_
*680 _0637_
*681 _0638_
*682 _0639_
*683 _0640_
*684 _0641_
*685 _0642_
*686 _0643_
*687 _0644_
*688 _0645_
*689 _0646_
*690 _0647_
*691 _0648_
*692 _0649_
*693 _0650_
*694 _0651_
*695 _0652_
*696 _0653_
*697 _0654_
*698 _0655_
*699 _0656_
*700 _0657_
*701 _0658_
*702 _0659_
*703 _0660_
*704 _0661_
*705 _0662_
*706 _0663_
*707 _0664_
*708 _0665_
*709 _0666_
*710 _0667_
*711 _0668_
*712 _0669_
*713 _0670_
*714 _0671_
*715 _0672_
*716 _0673_
*717 _0674_
*718 _0675_
*719 _0676_
*720 _0677_
*721 _0678_
*722 _0679_
*723 _0680_
*724 _0681_
*725 _0682_
*726 _0683_
*727 _0684_
*728 _0685_
*729 _0686_
*730 _0687_
*731 _0688_
*732 _0689_
*733 _0690_
*734 _0691_
*735 _0692_
*736 _0693_
*737 _0694_
*738 _0695_
*739 _0696_
*740 _0697_
*741 _0698_
*742 _0699_
*743 _0700_
*744 _0701_
*745 _0702_
*746 _0703_
*747 _0704_
*748 _0705_
*749 _0706_
*750 _0707_
*751 _0708_
*752 _0709_
*753 _0710_
*754 _0711_
*755 _0712_
*756 _0713_
*757 _0714_
*758 _0715_
*759 _0716_
*760 _0717_
*761 _0718_
*762 _0719_
*763 _0720_
*764 _0721_
*765 _0722_
*766 _0723_
*767 _0724_
*768 _0725_
*769 _0726_
*770 _0727_
*771 _0728_
*772 _0729_
*773 _0730_
*774 _0731_
*775 _0732_
*776 _0733_
*777 _0734_
*778 _0735_
*779 _0736_
*780 _0737_
*781 _0738_
*782 _0739_
*783 _0740_
*784 _0741_
*785 _0742_
*786 _0743_
*787 _0744_
*788 _0745_
*789 _0746_
*790 _0747_
*791 _0748_
*792 _0749_
*793 _0750_
*794 _0751_
*795 _0752_
*796 _0753_
*797 _0754_
*798 _0755_
*799 _0756_
*800 _0757_
*801 _0758_
*802 _0759_
*803 _0760_
*804 _0761_
*805 _0762_
*806 _0763_
*807 _0764_
*808 _0765_
*809 _0766_
*810 _0767_
*811 _0768_
*812 _0769_
*813 _0770_
*814 _0771_
*815 _0772_
*816 _0773_
*817 _0774_
*818 _0775_
*819 _0776_
*820 _0777_
*821 _0778_
*822 _0779_
*823 _0780_
*824 _0781_
*825 _0782_
*826 _0783_
*827 _0784_
*828 _0785_
*829 _0786_
*830 _0787_
*831 _0788_
*832 _0789_
*833 _0790_
*834 _0791_
*835 _0792_
*836 _0793_
*837 _0794_
*838 _0795_
*839 _0796_
*840 _0797_
*841 _0798_
*842 clknet_0_net12
*843 clknet_0_net8
*844 clknet_1_0__leaf_net12
*845 clknet_1_0__leaf_net8
*846 clknet_1_1__leaf_net12
*847 clknet_1_1__leaf_net8
*848 count2\[0\]
*849 count2\[1\]
*850 count2\[2\]
*851 count2\[3\]
*852 count2\[4\]
*853 count2\[5\]
*854 count\[0\]
*855 count\[1\]
*856 count\[2\]
*857 count\[3\]
*858 count\[4\]
*859 count\[5\]
*860 net1
*861 net10
*862 net11
*863 net12
*864 net13
*865 net14
*866 net2
*867 net3
*868 net4
*869 net5
*870 net6
*871 net7
*872 net8
*873 net9
*874 ANTENNA__0816__A0
*875 ANTENNA__0819__A
*876 ANTENNA__0820__A
*877 ANTENNA__0821__A1
*878 ANTENNA__0853__A
*879 ANTENNA__0857__A
*880 ANTENNA__0864__A1
*881 ANTENNA__0870__A
*882 ANTENNA__0880__A0
*883 ANTENNA__0883__A1
*884 ANTENNA__0894__A1
*885 ANTENNA__0904__A1
*886 ANTENNA__0910__A
*887 ANTENNA__0913__B2
*888 ANTENNA__0914__A
*889 ANTENNA__0917__B2
*890 ANTENNA__0920__A0
*891 ANTENNA__0920__A1
*892 ANTENNA__0924__A
*893 ANTENNA__0925__A1
*894 ANTENNA__0928__B2
*895 ANTENNA__0931__B2
*896 ANTENNA__0932__A
*897 ANTENNA__0933__A
*898 ANTENNA__0934__A0
*899 ANTENNA__0934__A1
*900 ANTENNA__0938__A0
*901 ANTENNA__0938__A1
*902 ANTENNA__0940__A
*903 ANTENNA__0942__B2
*904 ANTENNA__0943__A
*905 ANTENNA__0945__B2
*906 ANTENNA__0946__A
*907 ANTENNA__0948__A0
*908 ANTENNA__0948__A1
*909 ANTENNA__0950__A
*910 ANTENNA__0952__A1
*911 ANTENNA__0953__A
*912 ANTENNA__0955__B2
*913 ANTENNA__0957__B2
*914 ANTENNA__0959__A0
*915 ANTENNA__0959__A1
*916 ANTENNA__0961__A1
*917 ANTENNA__0961__S
*918 ANTENNA__0963__A
*919 ANTENNA__0976__A
*920 ANTENNA__0977__A
*921 ANTENNA__0978__A
*922 ANTENNA__0979__A
*923 ANTENNA__0980__A
*924 ANTENNA__0981__A
*925 ANTENNA__0982__A
*926 ANTENNA__0983__A
*927 ANTENNA__0984__A
*928 ANTENNA__0985__A
*929 ANTENNA__1012__B2
*930 ANTENNA__1025__A1
*931 ANTENNA__1025__B2
*932 ANTENNA__1037__B1
*933 ANTENNA__1038__A1
*934 ANTENNA__1038__B1
*935 ANTENNA__1039__B1
*936 ANTENNA__1040__B1
*937 ANTENNA__1044__A1
*938 ANTENNA__1044__B2
*939 ANTENNA__1045__B1
*940 ANTENNA__1046__B1
*941 ANTENNA__1046__B2
*942 ANTENNA__1051__A1
*943 ANTENNA__1052__A1
*944 ANTENNA__1054__A1
*945 ANTENNA__1055__B1
*946 ANTENNA__1056__A1
*947 ANTENNA__1056__B1
*948 ANTENNA__1071__S
*949 ANTENNA__1079__B2
*950 ANTENNA__1081__B2
*951 ANTENNA__1082__B1
*952 ANTENNA__1083__A1
*953 ANTENNA__1083__B1
*954 ANTENNA__1085__A1
*955 ANTENNA__1086__A1
*956 ANTENNA__1086__B1
*957 ANTENNA__1087__B1
*958 ANTENNA__1087__B2
*959 ANTENNA__1090__A1
*960 ANTENNA__1091__A1
*961 ANTENNA__1097__B2
*962 ANTENNA__1108__B1
*963 ANTENNA__1110__A1
*964 ANTENNA__1113__A1
*965 ANTENNA__1114__A1
*966 ANTENNA__1114__B2
*967 ANTENNA__1117__A
*968 ANTENNA__1119__A1
*969 ANTENNA__1121__A1
*970 ANTENNA__1122__B2
*971 ANTENNA__1123__B1
*972 ANTENNA__1130__A1
*973 ANTENNA__1138__A1
*974 ANTENNA__1146__A1
*975 ANTENNA__1147__A1
*976 ANTENNA__1148__A1
*977 ANTENNA__1166__B2
*978 ANTENNA__1169__A1
*979 ANTENNA__1170__A1
*980 ANTENNA__1172__B2
*981 ANTENNA__1193__B2
*982 ANTENNA__1204__B1
*983 ANTENNA__1206__A1
*984 ANTENNA__1214__B2
*985 ANTENNA__1216__B2
*986 ANTENNA__1225__A1
*987 ANTENNA__1225__B2
*988 ANTENNA__1228__C1
*989 ANTENNA__1239__B1
*990 ANTENNA__1245__A1
*991 ANTENNA__1245__B2
*992 ANTENNA__1246__A1
*993 ANTENNA__1246__B1
*994 ANTENNA__1247__B1
*995 ANTENNA__1247__B2
*996 ANTENNA__1250__B
*997 ANTENNA__1251__B1
*998 ANTENNA__1253__A1
*999 ANTENNA__1256__A1
*1000 ANTENNA__1256__B1
*1001 ANTENNA__1257__A1
*1002 ANTENNA__1257__B1
*1003 ANTENNA__1257__B2
*1004 ANTENNA__1259__B1
*1005 ANTENNA__1261__A2
*1006 ANTENNA__1263__B
*1007 ANTENNA__1266__B1
*1008 ANTENNA__1267__B
*1009 ANTENNA__1268__A1
*1010 ANTENNA__1273__A1
*1011 ANTENNA__1276__B1
*1012 ANTENNA__1287__A1
*1013 ANTENNA__1288__A1
*1014 ANTENNA__1288__B2
*1015 ANTENNA__1289__A1
*1016 ANTENNA__1290__A1
*1017 ANTENNA__1290__B2
*1018 ANTENNA__1291__A1
*1019 ANTENNA__1292__B2
*1020 ANTENNA__1306__A1
*1021 ANTENNA__1307__B1
*1022 ANTENNA__1308__B1
*1023 ANTENNA__1322__A1
*1024 ANTENNA__1323__A1
*1025 ANTENNA__1323__B2
*1026 ANTENNA__1324__A1
*1027 ANTENNA__1325__A1
*1028 ANTENNA__1325__B2
*1029 ANTENNA__1330__A1
*1030 ANTENNA__1331__A1
*1031 ANTENNA__1335__B1
*1032 ANTENNA__1339__A1_N
*1033 ANTENNA__1339__B2
*1034 ANTENNA__1340__A1
*1035 ANTENNA__1345__A1
*1036 ANTENNA__1346__A1
*1037 ANTENNA__1346__B2
*1038 ANTENNA__1347__A1
*1039 ANTENNA__1348__A1
*1040 ANTENNA__1349__A1
*1041 ANTENNA__1349__B2
*1042 ANTENNA__1369__A1_N
*1043 ANTENNA__1369__B2
*1044 ANTENNA__1370__A1
*1045 ANTENNA__1373__B1
*1046 ANTENNA__1374__A1_N
*1047 ANTENNA__1374__B2
*1048 ANTENNA__1375__A1
*1049 ANTENNA__1378__A
*1050 ANTENNA__1390__A1
*1051 ANTENNA__1391__A1
*1052 ANTENNA__1391__B2
*1053 ANTENNA__1393__A1
*1054 ANTENNA__1394__A1
*1055 ANTENNA__1394__B2
*1056 ANTENNA__1398__B1
*1057 ANTENNA__1400__B1
*1058 ANTENNA__1402__A1
*1059 ANTENNA__1403__A1
*1060 ANTENNA__1403__B2
*1061 ANTENNA__1419__A1
*1062 ANTENNA__1420__A1
*1063 ANTENNA__1420__B2
*1064 ANTENNA__1424__A1_N
*1065 ANTENNA__1424__B2
*1066 ANTENNA__1425__A1
*1067 ANTENNA__1427__B1_N
*1068 ANTENNA__1429__A1_N
*1069 ANTENNA__1429__B2
*1070 ANTENNA__1430__A1
*1071 ANTENNA__1431__A1
*1072 ANTENNA__1432__A1
*1073 ANTENNA__1432__B2
*1074 ANTENNA__1435__A
*1075 ANTENNA__1441__A1
*1076 ANTENNA__1442__A1
*1077 ANTENNA__1442__B2
*1078 ANTENNA__1446__B1
*1079 ANTENNA__1457__A1
*1080 ANTENNA__1458__A1
*1081 ANTENNA__1458__B2
*1082 ANTENNA__1461__A1
*1083 ANTENNA__1462__A1
*1084 ANTENNA__1462__B2
*1085 ANTENNA__1465__A1_N
*1086 ANTENNA__1465__B2
*1087 ANTENNA__1466__A1
*1088 ANTENNA__1468__A1
*1089 ANTENNA__1469__A1
*1090 ANTENNA__1469__B2
*1091 ANTENNA__1476__A1
*1092 ANTENNA__1477__A1
*1093 ANTENNA__1477__B2
*1094 ANTENNA__1481__A1_N
*1095 ANTENNA__1481__B2
*1096 ANTENNA__1482__A1
*1097 ANTENNA__1486__A1
*1098 ANTENNA__1487__A1
*1099 ANTENNA__1494__B2
*1100 ANTENNA__1502__A
*1101 ANTENNA__1504__A1
*1102 ANTENNA__1504__B2
*1103 ANTENNA__1508__B2
*1104 ANTENNA__1509__A
*1105 ANTENNA__1511__A1_N
*1106 ANTENNA__1511__B2
*1107 ANTENNA__1512__A1
*1108 ANTENNA__1516__A1
*1109 ANTENNA__1517__A1
*1110 ANTENNA__1517__B2
*1111 ANTENNA__1520__A1
*1112 ANTENNA__1521__A1
*1113 ANTENNA__1521__B2
*1114 ANTENNA__1524__A1
*1115 ANTENNA__1524__B2
*1116 ANTENNA__1525__A1
*1117 ANTENNA__1528__A1_N
*1118 ANTENNA__1528__B2
*1119 ANTENNA__1529__A1
*1120 ANTENNA__1534__A1_N
*1121 ANTENNA__1534__B2
*1122 ANTENNA__1535__A1
*1123 ANTENNA__1539__A1_N
*1124 ANTENNA__1539__B2
*1125 ANTENNA__1540__A1
*1126 ANTENNA__1545__S
*1127 ANTENNA__1550__A1_N
*1128 ANTENNA__1555__A1
*1129 ANTENNA__1556__A1
*1130 ANTENNA__1556__B2
*1131 ANTENNA__1559__B1_N
*1132 ANTENNA__1560__A1
*1133 ANTENNA__1563__B1
*1134 ANTENNA__1565__A1
*1135 ANTENNA__1575__S
*1136 ANTENNA__1578__A1
*1137 ANTENNA__1578__S0
*1138 ANTENNA__1579__S
*1139 ANTENNA__1580__A1
*1140 ANTENNA__1583__A1
*1141 ANTENNA__1586__A1
*1142 ANTENNA__1600__CLK
*1143 ANTENNA__1602__CLK
*1144 ANTENNA__1604__CLK
*1145 ANTENNA__1614__CLK
*1146 ANTENNA__1615__CLK
*1147 ANTENNA__1624__CLK
*1148 ANTENNA__1626__CLK
*1149 ANTENNA__1633__CLK
*1150 ANTENNA__1637__CLK
*1151 ANTENNA__1638__CLK
*1152 ANTENNA_fanout10_A
*1153 ANTENNA_fanout11_A
*1154 ANTENNA_fanout12_A
*1155 ANTENNA_fanout13_A
*1156 ANTENNA_fanout8_A
*1157 ANTENNA_fanout9_A
*1158 ANTENNA_input1_A
*1159 ANTENNA_input2_A
*1160 ANTENNA_input3_A
*1161 ANTENNA_input4_A
*1162 ANTENNA_input5_A
*1163 ANTENNA_output7_A
*1164 FILLER_0_109
*1165 FILLER_0_113
*1166 FILLER_0_125
*1167 FILLER_0_137
*1168 FILLER_0_141
*1169 FILLER_0_153
*1170 FILLER_0_165
*1171 FILLER_0_169
*1172 FILLER_0_181
*1173 FILLER_0_193
*1174 FILLER_0_197
*1175 FILLER_0_209
*1176 FILLER_0_21
*1177 FILLER_0_221
*1178 FILLER_0_225
*1179 FILLER_0_237
*1180 FILLER_0_249
*1181 FILLER_0_253
*1182 FILLER_0_265
*1183 FILLER_0_27
*1184 FILLER_0_277
*1185 FILLER_0_281
*1186 FILLER_0_29
*1187 FILLER_0_293
*1188 FILLER_0_3
*1189 FILLER_0_301
*1190 FILLER_0_306
*1191 FILLER_0_309
*1192 FILLER_0_315
*1193 FILLER_0_327
*1194 FILLER_0_335
*1195 FILLER_0_337
*1196 FILLER_0_349
*1197 FILLER_0_361
*1198 FILLER_0_365
*1199 FILLER_0_377
*1200 FILLER_0_389
*1201 FILLER_0_393
*1202 FILLER_0_405
*1203 FILLER_0_41
*1204 FILLER_0_417
*1205 FILLER_0_421
*1206 FILLER_0_433
*1207 FILLER_0_445
*1208 FILLER_0_449
*1209 FILLER_0_461
*1210 FILLER_0_473
*1211 FILLER_0_477
*1212 FILLER_0_489
*1213 FILLER_0_501
*1214 FILLER_0_505
*1215 FILLER_0_517
*1216 FILLER_0_529
*1217 FILLER_0_53
*1218 FILLER_0_533
*1219 FILLER_0_545
*1220 FILLER_0_557
*1221 FILLER_0_561
*1222 FILLER_0_57
*1223 FILLER_0_573
*1224 FILLER_0_585
*1225 FILLER_0_589
*1226 FILLER_0_601
*1227 FILLER_0_613
*1228 FILLER_0_617
*1229 FILLER_0_623
*1230 FILLER_0_69
*1231 FILLER_0_81
*1232 FILLER_0_85
*1233 FILLER_0_9
*1234 FILLER_0_97
*1235 FILLER_100_109
*1236 FILLER_100_121
*1237 FILLER_100_133
*1238 FILLER_100_139
*1239 FILLER_100_14
*1240 FILLER_100_141
*1241 FILLER_100_153
*1242 FILLER_100_165
*1243 FILLER_100_177
*1244 FILLER_100_189
*1245 FILLER_100_195
*1246 FILLER_100_197
*1247 FILLER_100_20
*1248 FILLER_100_209
*1249 FILLER_100_221
*1250 FILLER_100_233
*1251 FILLER_100_245
*1252 FILLER_100_251
*1253 FILLER_100_253
*1254 FILLER_100_265
*1255 FILLER_100_277
*1256 FILLER_100_289
*1257 FILLER_100_29
*1258 FILLER_100_3
*1259 FILLER_100_301
*1260 FILLER_100_307
*1261 FILLER_100_309
*1262 FILLER_100_321
*1263 FILLER_100_333
*1264 FILLER_100_345
*1265 FILLER_100_357
*1266 FILLER_100_363
*1267 FILLER_100_365
*1268 FILLER_100_377
*1269 FILLER_100_389
*1270 FILLER_100_401
*1271 FILLER_100_41
*1272 FILLER_100_413
*1273 FILLER_100_419
*1274 FILLER_100_421
*1275 FILLER_100_433
*1276 FILLER_100_445
*1277 FILLER_100_457
*1278 FILLER_100_469
*1279 FILLER_100_475
*1280 FILLER_100_477
*1281 FILLER_100_489
*1282 FILLER_100_501
*1283 FILLER_100_513
*1284 FILLER_100_525
*1285 FILLER_100_53
*1286 FILLER_100_531
*1287 FILLER_100_533
*1288 FILLER_100_545
*1289 FILLER_100_557
*1290 FILLER_100_569
*1291 FILLER_100_581
*1292 FILLER_100_587
*1293 FILLER_100_589
*1294 FILLER_100_601
*1295 FILLER_100_613
*1296 FILLER_100_623
*1297 FILLER_100_65
*1298 FILLER_100_77
*1299 FILLER_100_83
*1300 FILLER_100_85
*1301 FILLER_100_97
*1302 FILLER_101_109
*1303 FILLER_101_113
*1304 FILLER_101_125
*1305 FILLER_101_137
*1306 FILLER_101_141
*1307 FILLER_101_153
*1308 FILLER_101_16
*1309 FILLER_101_165
*1310 FILLER_101_169
*1311 FILLER_101_181
*1312 FILLER_101_193
*1313 FILLER_101_197
*1314 FILLER_101_209
*1315 FILLER_101_22
*1316 FILLER_101_221
*1317 FILLER_101_225
*1318 FILLER_101_237
*1319 FILLER_101_249
*1320 FILLER_101_253
*1321 FILLER_101_265
*1322 FILLER_101_277
*1323 FILLER_101_281
*1324 FILLER_101_29
*1325 FILLER_101_293
*1326 FILLER_101_3
*1327 FILLER_101_305
*1328 FILLER_101_309
*1329 FILLER_101_321
*1330 FILLER_101_333
*1331 FILLER_101_337
*1332 FILLER_101_349
*1333 FILLER_101_361
*1334 FILLER_101_365
*1335 FILLER_101_377
*1336 FILLER_101_389
*1337 FILLER_101_393
*1338 FILLER_101_405
*1339 FILLER_101_41
*1340 FILLER_101_417
*1341 FILLER_101_421
*1342 FILLER_101_433
*1343 FILLER_101_445
*1344 FILLER_101_449
*1345 FILLER_101_461
*1346 FILLER_101_473
*1347 FILLER_101_477
*1348 FILLER_101_489
*1349 FILLER_101_501
*1350 FILLER_101_505
*1351 FILLER_101_517
*1352 FILLER_101_529
*1353 FILLER_101_53
*1354 FILLER_101_533
*1355 FILLER_101_545
*1356 FILLER_101_557
*1357 FILLER_101_561
*1358 FILLER_101_57
*1359 FILLER_101_573
*1360 FILLER_101_585
*1361 FILLER_101_589
*1362 FILLER_101_601
*1363 FILLER_101_613
*1364 FILLER_101_617
*1365 FILLER_101_69
*1366 FILLER_101_8
*1367 FILLER_101_81
*1368 FILLER_101_85
*1369 FILLER_101_97
*1370 FILLER_10_109
*1371 FILLER_10_121
*1372 FILLER_10_133
*1373 FILLER_10_139
*1374 FILLER_10_141
*1375 FILLER_10_15
*1376 FILLER_10_153
*1377 FILLER_10_165
*1378 FILLER_10_177
*1379 FILLER_10_189
*1380 FILLER_10_195
*1381 FILLER_10_197
*1382 FILLER_10_209
*1383 FILLER_10_221
*1384 FILLER_10_233
*1385 FILLER_10_245
*1386 FILLER_10_251
*1387 FILLER_10_253
*1388 FILLER_10_265
*1389 FILLER_10_27
*1390 FILLER_10_277
*1391 FILLER_10_289
*1392 FILLER_10_29
*1393 FILLER_10_3
*1394 FILLER_10_301
*1395 FILLER_10_307
*1396 FILLER_10_309
*1397 FILLER_10_321
*1398 FILLER_10_333
*1399 FILLER_10_345
*1400 FILLER_10_357
*1401 FILLER_10_363
*1402 FILLER_10_365
*1403 FILLER_10_377
*1404 FILLER_10_389
*1405 FILLER_10_401
*1406 FILLER_10_41
*1407 FILLER_10_413
*1408 FILLER_10_419
*1409 FILLER_10_421
*1410 FILLER_10_433
*1411 FILLER_10_445
*1412 FILLER_10_457
*1413 FILLER_10_469
*1414 FILLER_10_475
*1415 FILLER_10_477
*1416 FILLER_10_489
*1417 FILLER_10_501
*1418 FILLER_10_513
*1419 FILLER_10_525
*1420 FILLER_10_53
*1421 FILLER_10_531
*1422 FILLER_10_533
*1423 FILLER_10_545
*1424 FILLER_10_557
*1425 FILLER_10_569
*1426 FILLER_10_581
*1427 FILLER_10_587
*1428 FILLER_10_589
*1429 FILLER_10_601
*1430 FILLER_10_613
*1431 FILLER_10_65
*1432 FILLER_10_77
*1433 FILLER_10_83
*1434 FILLER_10_85
*1435 FILLER_10_97
*1436 FILLER_11_105
*1437 FILLER_11_111
*1438 FILLER_11_113
*1439 FILLER_11_125
*1440 FILLER_11_137
*1441 FILLER_11_149
*1442 FILLER_11_15
*1443 FILLER_11_161
*1444 FILLER_11_167
*1445 FILLER_11_169
*1446 FILLER_11_181
*1447 FILLER_11_193
*1448 FILLER_11_205
*1449 FILLER_11_217
*1450 FILLER_11_223
*1451 FILLER_11_225
*1452 FILLER_11_237
*1453 FILLER_11_249
*1454 FILLER_11_261
*1455 FILLER_11_27
*1456 FILLER_11_273
*1457 FILLER_11_279
*1458 FILLER_11_281
*1459 FILLER_11_293
*1460 FILLER_11_3
*1461 FILLER_11_305
*1462 FILLER_11_317
*1463 FILLER_11_329
*1464 FILLER_11_335
*1465 FILLER_11_337
*1466 FILLER_11_349
*1467 FILLER_11_361
*1468 FILLER_11_373
*1469 FILLER_11_385
*1470 FILLER_11_39
*1471 FILLER_11_391
*1472 FILLER_11_393
*1473 FILLER_11_405
*1474 FILLER_11_417
*1475 FILLER_11_429
*1476 FILLER_11_441
*1477 FILLER_11_447
*1478 FILLER_11_449
*1479 FILLER_11_461
*1480 FILLER_11_473
*1481 FILLER_11_485
*1482 FILLER_11_497
*1483 FILLER_11_503
*1484 FILLER_11_505
*1485 FILLER_11_51
*1486 FILLER_11_517
*1487 FILLER_11_529
*1488 FILLER_11_541
*1489 FILLER_11_55
*1490 FILLER_11_553
*1491 FILLER_11_559
*1492 FILLER_11_561
*1493 FILLER_11_57
*1494 FILLER_11_573
*1495 FILLER_11_585
*1496 FILLER_11_597
*1497 FILLER_11_609
*1498 FILLER_11_615
*1499 FILLER_11_617
*1500 FILLER_11_69
*1501 FILLER_11_81
*1502 FILLER_11_93
*1503 FILLER_12_109
*1504 FILLER_12_121
*1505 FILLER_12_133
*1506 FILLER_12_139
*1507 FILLER_12_141
*1508 FILLER_12_15
*1509 FILLER_12_153
*1510 FILLER_12_165
*1511 FILLER_12_177
*1512 FILLER_12_189
*1513 FILLER_12_195
*1514 FILLER_12_197
*1515 FILLER_12_209
*1516 FILLER_12_221
*1517 FILLER_12_233
*1518 FILLER_12_245
*1519 FILLER_12_251
*1520 FILLER_12_253
*1521 FILLER_12_265
*1522 FILLER_12_27
*1523 FILLER_12_277
*1524 FILLER_12_289
*1525 FILLER_12_29
*1526 FILLER_12_3
*1527 FILLER_12_301
*1528 FILLER_12_307
*1529 FILLER_12_309
*1530 FILLER_12_321
*1531 FILLER_12_333
*1532 FILLER_12_345
*1533 FILLER_12_357
*1534 FILLER_12_363
*1535 FILLER_12_365
*1536 FILLER_12_377
*1537 FILLER_12_389
*1538 FILLER_12_401
*1539 FILLER_12_41
*1540 FILLER_12_413
*1541 FILLER_12_419
*1542 FILLER_12_421
*1543 FILLER_12_433
*1544 FILLER_12_445
*1545 FILLER_12_457
*1546 FILLER_12_469
*1547 FILLER_12_475
*1548 FILLER_12_477
*1549 FILLER_12_489
*1550 FILLER_12_501
*1551 FILLER_12_513
*1552 FILLER_12_525
*1553 FILLER_12_53
*1554 FILLER_12_531
*1555 FILLER_12_533
*1556 FILLER_12_545
*1557 FILLER_12_557
*1558 FILLER_12_569
*1559 FILLER_12_581
*1560 FILLER_12_587
*1561 FILLER_12_589
*1562 FILLER_12_601
*1563 FILLER_12_613
*1564 FILLER_12_65
*1565 FILLER_12_77
*1566 FILLER_12_83
*1567 FILLER_12_85
*1568 FILLER_12_97
*1569 FILLER_13_105
*1570 FILLER_13_111
*1571 FILLER_13_113
*1572 FILLER_13_125
*1573 FILLER_13_137
*1574 FILLER_13_149
*1575 FILLER_13_15
*1576 FILLER_13_161
*1577 FILLER_13_167
*1578 FILLER_13_169
*1579 FILLER_13_181
*1580 FILLER_13_193
*1581 FILLER_13_205
*1582 FILLER_13_217
*1583 FILLER_13_223
*1584 FILLER_13_225
*1585 FILLER_13_237
*1586 FILLER_13_249
*1587 FILLER_13_261
*1588 FILLER_13_27
*1589 FILLER_13_273
*1590 FILLER_13_279
*1591 FILLER_13_281
*1592 FILLER_13_293
*1593 FILLER_13_3
*1594 FILLER_13_305
*1595 FILLER_13_317
*1596 FILLER_13_329
*1597 FILLER_13_335
*1598 FILLER_13_337
*1599 FILLER_13_349
*1600 FILLER_13_361
*1601 FILLER_13_373
*1602 FILLER_13_385
*1603 FILLER_13_39
*1604 FILLER_13_391
*1605 FILLER_13_393
*1606 FILLER_13_405
*1607 FILLER_13_417
*1608 FILLER_13_429
*1609 FILLER_13_441
*1610 FILLER_13_447
*1611 FILLER_13_449
*1612 FILLER_13_461
*1613 FILLER_13_473
*1614 FILLER_13_485
*1615 FILLER_13_497
*1616 FILLER_13_503
*1617 FILLER_13_505
*1618 FILLER_13_51
*1619 FILLER_13_517
*1620 FILLER_13_529
*1621 FILLER_13_541
*1622 FILLER_13_55
*1623 FILLER_13_553
*1624 FILLER_13_559
*1625 FILLER_13_561
*1626 FILLER_13_57
*1627 FILLER_13_573
*1628 FILLER_13_585
*1629 FILLER_13_597
*1630 FILLER_13_609
*1631 FILLER_13_615
*1632 FILLER_13_617
*1633 FILLER_13_69
*1634 FILLER_13_81
*1635 FILLER_13_93
*1636 FILLER_14_109
*1637 FILLER_14_121
*1638 FILLER_14_133
*1639 FILLER_14_139
*1640 FILLER_14_141
*1641 FILLER_14_15
*1642 FILLER_14_153
*1643 FILLER_14_165
*1644 FILLER_14_177
*1645 FILLER_14_189
*1646 FILLER_14_195
*1647 FILLER_14_197
*1648 FILLER_14_209
*1649 FILLER_14_221
*1650 FILLER_14_233
*1651 FILLER_14_245
*1652 FILLER_14_251
*1653 FILLER_14_253
*1654 FILLER_14_265
*1655 FILLER_14_27
*1656 FILLER_14_277
*1657 FILLER_14_289
*1658 FILLER_14_29
*1659 FILLER_14_3
*1660 FILLER_14_301
*1661 FILLER_14_307
*1662 FILLER_14_309
*1663 FILLER_14_321
*1664 FILLER_14_333
*1665 FILLER_14_345
*1666 FILLER_14_357
*1667 FILLER_14_363
*1668 FILLER_14_365
*1669 FILLER_14_377
*1670 FILLER_14_389
*1671 FILLER_14_401
*1672 FILLER_14_41
*1673 FILLER_14_413
*1674 FILLER_14_419
*1675 FILLER_14_421
*1676 FILLER_14_433
*1677 FILLER_14_445
*1678 FILLER_14_457
*1679 FILLER_14_469
*1680 FILLER_14_475
*1681 FILLER_14_477
*1682 FILLER_14_489
*1683 FILLER_14_501
*1684 FILLER_14_513
*1685 FILLER_14_525
*1686 FILLER_14_53
*1687 FILLER_14_531
*1688 FILLER_14_533
*1689 FILLER_14_545
*1690 FILLER_14_557
*1691 FILLER_14_569
*1692 FILLER_14_581
*1693 FILLER_14_587
*1694 FILLER_14_589
*1695 FILLER_14_601
*1696 FILLER_14_613
*1697 FILLER_14_65
*1698 FILLER_14_77
*1699 FILLER_14_83
*1700 FILLER_14_85
*1701 FILLER_14_97
*1702 FILLER_15_105
*1703 FILLER_15_111
*1704 FILLER_15_113
*1705 FILLER_15_125
*1706 FILLER_15_137
*1707 FILLER_15_149
*1708 FILLER_15_15
*1709 FILLER_15_161
*1710 FILLER_15_167
*1711 FILLER_15_169
*1712 FILLER_15_181
*1713 FILLER_15_193
*1714 FILLER_15_205
*1715 FILLER_15_217
*1716 FILLER_15_223
*1717 FILLER_15_225
*1718 FILLER_15_237
*1719 FILLER_15_249
*1720 FILLER_15_261
*1721 FILLER_15_27
*1722 FILLER_15_273
*1723 FILLER_15_279
*1724 FILLER_15_281
*1725 FILLER_15_293
*1726 FILLER_15_3
*1727 FILLER_15_305
*1728 FILLER_15_317
*1729 FILLER_15_329
*1730 FILLER_15_335
*1731 FILLER_15_337
*1732 FILLER_15_349
*1733 FILLER_15_361
*1734 FILLER_15_373
*1735 FILLER_15_385
*1736 FILLER_15_39
*1737 FILLER_15_391
*1738 FILLER_15_393
*1739 FILLER_15_405
*1740 FILLER_15_417
*1741 FILLER_15_429
*1742 FILLER_15_441
*1743 FILLER_15_447
*1744 FILLER_15_449
*1745 FILLER_15_461