*SPEF "ieee 1481-1999"
*DESIGN "user_project_wrapper"
*DATE "11:11:11 Fri 11 11, 1111"
*VENDOR "OpenRCX"
*PROGRAM "Parallel Extraction"
*VERSION "1.0"
*DESIGN_FLOW "NAME_SCOPE LOCAL" "PIN_CAP NONE"
*DIVIDER /
*DELIMITER :
*BUS_DELIMITER []
*T_UNIT 1 NS
*C_UNIT 1 PF
*R_UNIT 1 OHM
*L_UNIT 1 HENRY

*NAME_MAP
*1 io_in[0]
*2 io_in[10]
*3 io_in[11]
*4 io_in[12]
*5 io_in[13]
*6 io_in[14]
*7 io_in[15]
*8 io_in[16]
*9 io_in[17]
*10 io_in[18]
*11 io_in[19]
*12 io_in[1]
*13 io_in[20]
*14 io_in[21]
*15 io_in[22]
*16 io_in[23]
*17 io_in[24]
*18 io_in[25]
*19 io_in[26]
*20 io_in[27]
*21 io_in[28]
*22 io_in[29]
*23 io_in[2]
*24 io_in[30]
*25 io_in[31]
*26 io_in[32]
*27 io_in[33]
*28 io_in[34]
*29 io_in[35]
*30 io_in[36]
*31 io_in[37]
*32 io_in[3]
*33 io_in[4]
*34 io_in[5]
*35 io_in[6]
*36 io_in[7]
*37 io_in[8]
*38 io_in[9]
*39 net72
*40 net82
*41 net83
*42 net84
*43 net85
*44 net86
*45 net87
*46 net88
*47 net89
*48 net90
*49 net91
*50 net73
*51 net92
*52 net93
*53 net94
*54 net95
*55 net96
*56 net97
*57 net98
*58 net99
*59 net100
*60 net101
*61 net74
*62 net102
*63 net103
*64 net104
*65 net105
*66 net106
*67 net107
*68 net108
*69 net109
*70 net75
*71 net76
*72 net77
*73 net78
*74 net79
*75 net80
*76 net81
*77 io_out[0]
*78 net117
*79 net118
*80 net119
*81 net120
*82 net121
*83 net122
*84 net123
*85 net124
*86 net125
*87 net126
*88 io_out[1]
*89 net127
*90 net128
*91 net129
*92 net130
*93 net131
*94 net132
*95 net133
*96 net134
*97 net135
*98 net136
*99 io_out[2]
*100 net137
*101 net138
*102 net139
*103 net140
*104 net141
*105 net142
*106 net143
*107 net144
*108 net110
*109 net111
*110 net112
*111 net113
*112 net114
*113 net115
*114 net116
*115 la_data_in[0]
*116 la_data_in[10]
*117 la_data_in[11]
*118 la_data_in[12]
*119 la_data_in[13]
*120 la_data_in[14]
*121 la_data_in[15]
*122 la_data_in[16]
*123 la_data_in[17]
*124 la_data_in[18]
*125 la_data_in[19]
*126 la_data_in[1]
*127 la_data_in[20]
*128 la_data_in[21]
*129 la_data_in[22]
*130 la_data_in[23]
*131 la_data_in[24]
*132 la_data_in[25]
*133 la_data_in[26]
*134 la_data_in[27]
*135 la_data_in[28]
*136 la_data_in[29]
*137 la_data_in[2]
*138 la_data_in[30]
*139 la_data_in[31]
*140 la_data_in[32]
*141 la_data_in[33]
*142 la_data_in[34]
*143 la_data_in[35]
*144 la_data_in[36]
*145 la_data_in[37]
*146 la_data_in[38]
*147 la_data_in[39]
*148 la_data_in[3]
*149 la_data_in[40]
*150 la_data_in[41]
*151 la_data_in[42]
*152 la_data_in[43]
*153 la_data_in[44]
*154 la_data_in[45]
*155 la_data_in[46]
*156 la_data_in[47]
*157 la_data_in[48]
*158 la_data_in[49]
*159 la_data_in[4]
*160 la_data_in[50]
*161 la_data_in[51]
*162 la_data_in[52]
*163 la_data_in[53]
*164 la_data_in[54]
*165 la_data_in[55]
*166 la_data_in[56]
*167 la_data_in[57]
*168 la_data_in[58]
*169 la_data_in[59]
*170 la_data_in[5]
*171 la_data_in[60]
*172 la_data_in[61]
*173 la_data_in[62]
*174 la_data_in[63]
*175 la_data_in[6]
*176 la_data_in[7]
*177 la_data_in[8]
*178 la_data_in[9]
*179 net145
*180 net155
*181 net156
*182 net157
*183 net158
*184 net159
*185 net160
*186 net161
*187 net162
*188 net163
*189 net164
*190 net146
*191 net165
*192 net166
*193 net167
*194 net168
*195 net169
*196 net170
*197 net171
*198 net172
*199 net173
*200 net174
*201 net147
*202 net175
*203 net176
*204 net177
*205 net178
*206 net179
*207 net180
*208 net181
*209 net182
*210 net183
*211 net184
*212 net148
*213 net185
*214 net186
*215 net187
*216 net188
*217 net189
*218 net190
*219 net191
*220 net192
*221 net193
*222 net194
*223 net149
*224 net195
*225 net196
*226 net197
*227 net198
*228 net199
*229 net200
*230 net201
*231 net202
*232 net203
*233 net204
*234 net150
*235 net205
*236 net206
*237 net207
*238 net208
*239 net151
*240 net152
*241 net153
*242 net154
*243 la_oenb[0]
*244 la_oenb[10]
*245 la_oenb[11]
*246 la_oenb[12]
*247 la_oenb[13]
*248 la_oenb[14]
*249 la_oenb[15]
*250 la_oenb[16]
*251 la_oenb[17]
*252 la_oenb[18]
*253 la_oenb[19]
*254 la_oenb[1]
*255 la_oenb[20]
*256 la_oenb[21]
*257 la_oenb[22]
*258 la_oenb[23]
*259 la_oenb[24]
*260 la_oenb[25]
*261 la_oenb[26]
*262 la_oenb[27]
*263 la_oenb[28]
*264 la_oenb[29]
*265 la_oenb[2]
*266 la_oenb[30]
*267 la_oenb[31]
*268 la_oenb[32]
*269 la_oenb[33]
*270 la_oenb[34]
*271 la_oenb[35]
*272 la_oenb[36]
*273 la_oenb[37]
*274 la_oenb[38]
*275 la_oenb[39]
*276 la_oenb[3]
*277 la_oenb[40]
*278 la_oenb[41]
*279 la_oenb[42]
*280 la_oenb[43]
*281 la_oenb[44]
*282 la_oenb[45]
*283 la_oenb[46]
*284 la_oenb[47]
*285 la_oenb[48]
*286 la_oenb[49]
*287 la_oenb[4]
*288 la_oenb[50]
*289 la_oenb[51]
*290 la_oenb[52]
*291 la_oenb[53]
*292 la_oenb[54]
*293 la_oenb[55]
*294 la_oenb[56]
*295 la_oenb[57]
*296 la_oenb[58]
*297 la_oenb[59]
*298 la_oenb[5]
*299 la_oenb[60]
*300 la_oenb[61]
*301 la_oenb[62]
*302 la_oenb[63]
*303 la_oenb[6]
*304 la_oenb[7]
*305 la_oenb[8]
*306 la_oenb[9]
*307 user_clock2
*308 net209
*309 net210
*310 net211
*313 wb_clk_i
*314 wb_rst_i
*315 wbs_ack_o
*316 wbs_adr_i[0]
*317 wbs_adr_i[10]
*318 wbs_adr_i[11]
*319 wbs_adr_i[12]
*320 wbs_adr_i[13]
*321 wbs_adr_i[14]
*322 wbs_adr_i[15]
*323 wbs_adr_i[16]
*324 wbs_adr_i[17]
*325 wbs_adr_i[18]
*326 wbs_adr_i[19]
*327 wbs_adr_i[1]
*328 wbs_adr_i[20]
*329 wbs_adr_i[21]
*330 wbs_adr_i[22]
*331 wbs_adr_i[23]
*332 wbs_adr_i[24]
*333 wbs_adr_i[25]
*334 wbs_adr_i[26]
*335 wbs_adr_i[27]
*336 wbs_adr_i[28]
*337 wbs_adr_i[29]
*338 wbs_adr_i[2]
*339 wbs_adr_i[30]
*340 wbs_adr_i[31]
*341 wbs_adr_i[3]
*342 wbs_adr_i[4]
*343 wbs_adr_i[5]
*344 wbs_adr_i[6]
*345 wbs_adr_i[7]
*346 wbs_adr_i[8]
*347 wbs_adr_i[9]
*348 wbs_cyc_i
*349 wbs_dat_i[0]
*350 wbs_dat_i[10]
*351 wbs_dat_i[11]
*352 wbs_dat_i[12]
*353 wbs_dat_i[13]
*354 wbs_dat_i[14]
*355 wbs_dat_i[15]
*356 wbs_dat_i[16]
*357 wbs_dat_i[17]
*358 wbs_dat_i[18]
*359 wbs_dat_i[19]
*360 wbs_dat_i[1]
*361 wbs_dat_i[20]
*362 wbs_dat_i[21]
*363 wbs_dat_i[22]
*364 wbs_dat_i[23]
*365 wbs_dat_i[24]
*366 wbs_dat_i[25]
*367 wbs_dat_i[26]
*368 wbs_dat_i[27]
*369 wbs_dat_i[28]
*370 wbs_dat_i[29]
*371 wbs_dat_i[2]
*372 wbs_dat_i[30]
*373 wbs_dat_i[31]
*374 wbs_dat_i[3]
*375 wbs_dat_i[4]
*376 wbs_dat_i[5]
*377 wbs_dat_i[6]
*378 wbs_dat_i[7]
*379 wbs_dat_i[8]
*380 wbs_dat_i[9]
*381 wbs_dat_o[0]
*382 wbs_dat_o[10]
*383 wbs_dat_o[11]
*384 wbs_dat_o[12]
*385 wbs_dat_o[13]
*386 wbs_dat_o[14]
*387 wbs_dat_o[15]
*388 wbs_dat_o[16]
*389 wbs_dat_o[17]
*390 wbs_dat_o[18]
*391 wbs_dat_o[19]
*392 wbs_dat_o[1]
*393 wbs_dat_o[20]
*394 wbs_dat_o[21]
*395 wbs_dat_o[22]
*396 wbs_dat_o[23]
*397 wbs_dat_o[24]
*398 wbs_dat_o[25]
*399 wbs_dat_o[26]
*400 wbs_dat_o[27]
*401 wbs_dat_o[28]
*402 wbs_dat_o[29]
*403 wbs_dat_o[2]
*404 wbs_dat_o[30]
*405 wbs_dat_o[31]
*406 wbs_dat_o[3]
*407 wbs_dat_o[4]
*408 wbs_dat_o[5]
*409 wbs_dat_o[6]
*410 wbs_dat_o[7]
*411 wbs_dat_o[8]
*412 wbs_dat_o[9]
*413 wbs_sel_i[0]
*414 wbs_sel_i[1]
*415 wbs_sel_i[2]
*416 wbs_sel_i[3]
*417 wbs_stb_i
*418 wbs_we_i
*419 _0000_
*420 _0001_
*421 _0002_
*422 _0003_
*423 _0004_
*424 _0005_
*425 _0006_
*426 _0007_
*427 _0008_
*428 _0009_
*429 _0010_
*430 _0011_
*431 _0012_
*432 _0013_
*433 _0014_
*434 _0015_
*435 _0016_
*436 _0017_
*437 _0018_
*438 _0019_
*439 _0020_
*440 _0021_
*441 _0022_
*442 _0023_
*443 _0024_
*444 _0025_
*445 _0026_
*446 _0027_
*447 _0028_
*448 _0029_
*449 _0030_
*450 _0031_
*451 _0032_
*452 _0033_
*453 _0034_
*454 _0035_
*455 _0036_
*456 _0037_
*457 _0038_
*458 _0039_
*459 _0040_
*460 _0041_
*461 _0042_
*462 _0043_
*463 _0044_
*464 _0045_
*465 _0046_
*466 _0047_
*467 _0048_
*468 _0049_
*469 _0050_
*470 _0051_
*471 _0052_
*472 _0053_
*473 _0054_
*474 _0055_
*475 _0056_
*476 _0057_
*477 _0058_
*478 _0059_
*479 _0060_
*480 _0061_
*481 _0062_
*482 _0063_
*483 _0064_
*484 _0065_
*485 _0066_
*486 _0067_
*487 _0068_
*488 _0069_
*489 _0070_
*490 _0071_
*491 _0072_
*492 _0073_
*493 _0074_
*494 _0075_
*495 _0076_
*496 _0077_
*497 _0078_
*498 _0079_
*499 _0080_
*500 _0081_
*501 _0082_
*502 _0083_
*503 _0084_
*504 _0085_
*505 _0086_
*506 _0087_
*507 _0088_
*508 _0089_
*509 _0090_
*510 _0091_
*511 _0092_
*512 _0093_
*513 _0094_
*514 _0095_
*515 _0096_
*516 _0097_
*517 _0098_
*518 _0099_
*519 _0100_
*520 _0101_
*521 _0102_
*522 _0103_
*523 _0104_
*524 _0105_
*525 _0106_
*526 _0107_
*527 _0108_
*528 _0109_
*529 _0110_
*530 _0111_
*531 _0112_
*532 _0113_
*533 _0114_
*534 _0115_
*535 _0116_
*536 _0117_
*537 _0118_
*538 _0119_
*539 _0120_
*540 _0121_
*541 _0122_
*542 _0123_
*543 _0124_
*544 _0125_
*545 _0126_
*546 _0127_
*547 _0128_
*548 _0129_
*549 _0130_
*550 _0131_
*551 _0132_
*552 _0133_
*553 _0134_
*554 _0135_
*555 _0136_
*556 _0137_
*557 _0138_
*558 _0139_
*559 _0140_
*560 _0141_
*561 _0142_
*562 _0143_
*563 _0144_
*564 _0145_
*565 _0146_
*566 _0147_
*567 _0148_
*568 _0149_
*569 _0150_
*570 _0151_
*571 _0152_
*572 _0153_
*573 _0154_
*574 _0155_
*575 _0156_
*576 _0157_
*577 _0158_
*578 _0159_
*579 _0160_
*580 _0161_
*581 _0162_
*582 _0163_
*583 _0164_
*584 _0165_
*585 _0166_
*586 _0167_
*587 _0168_
*588 _0169_
*589 _0170_
*590 _0171_
*591 _0172_
*592 _0173_
*593 _0174_
*594 _0175_
*595 _0176_
*596 _0177_
*597 _0178_
*598 _0179_
*599 _0180_
*600 _0181_
*601 _0182_
*602 _0183_
*603 _0184_
*604 _0185_
*605 _0186_
*606 _0187_
*607 _0188_
*608 _0189_
*609 _0190_
*610 _0191_
*611 _0192_
*612 _0193_
*613 _0194_
*614 _0195_
*615 _0196_
*616 _0197_
*617 _0198_
*618 _0199_
*619 _0200_
*620 _0201_
*621 _0202_
*622 _0203_
*623 _0204_
*624 _0205_
*625 _0206_
*626 _0207_
*627 _0208_
*628 _0209_
*629 _0210_
*630 _0211_
*631 _0212_
*632 _0213_
*633 _0214_
*634 _0215_
*635 _0216_
*636 _0217_
*637 _0218_
*638 _0219_
*639 _0220_
*640 _0221_
*641 _0222_
*642 _0223_
*643 _0224_
*644 _0225_
*645 _0226_
*646 _0227_
*647 _0228_
*648 _0229_
*649 _0230_
*650 _0231_
*651 _0232_
*652 _0233_
*653 _0234_
*654 _0235_
*655 _0236_
*656 _0237_
*657 _0238_
*658 _0239_
*659 _0240_
*660 _0241_
*661 _0242_
*662 _0243_
*663 _0244_
*664 _0245_
*665 _0246_
*666 _0247_
*667 _0248_
*668 _0249_
*669 _0250_
*670 _0251_
*671 _0252_
*672 _0253_
*673 _0254_
*674 _0255_
*675 _0256_
*676 _0257_
*677 _0258_
*678 _0259_
*679 _0260_
*680 _0261_
*681 _0262_
*682 _0263_
*683 _0264_
*684 _0265_
*685 _0266_
*686 _0267_
*687 _0268_
*688 _0269_
*689 _0270_
*690 _0271_
*691 _0272_
*692 _0273_
*693 _0274_
*694 _0275_
*695 _0276_
*696 _0277_
*697 _0278_
*698 _0279_
*699 _0280_
*700 _0281_
*701 _0282_
*702 _0283_
*703 _0284_
*704 _0285_
*705 _0286_
*706 _0287_
*707 _0288_
*708 _0289_
*709 _0290_
*710 _0291_
*711 _0292_
*712 _0293_
*713 _0294_
*714 _0295_
*715 _0296_
*716 _0297_
*717 _0298_
*718 _0299_
*719 _0300_
*720 _0301_
*721 _0302_
*722 _0303_
*723 _0304_
*724 _0305_
*725 _0306_
*726 _0307_
*727 _0308_
*728 _0309_
*729 _0310_
*730 _0311_
*731 _0312_
*732 _0313_
*733 _0314_
*734 _0315_
*735 _0316_
*736 _0317_
*737 _0318_
*738 _0319_
*739 _0320_
*740 _0321_
*741 _0322_
*742 _0323_
*743 _0324_
*744 _0325_
*745 _0326_
*746 _0327_
*747 _0328_
*748 _0329_
*749 _0330_
*750 _0331_
*751 _0332_
*752 _0333_
*753 _0334_
*754 _0335_
*755 _0336_
*756 _0337_
*757 _0338_
*758 _0339_
*759 _0340_
*760 _0341_
*761 _0342_
*762 _0343_
*763 _0344_
*764 _0345_
*765 _0346_
*766 _0347_
*767 _0348_
*768 _0349_
*769 _0350_
*770 _0351_
*771 _0352_
*772 _0353_
*773 _0354_
*774 _0355_
*775 _0356_
*776 _0357_
*777 _0358_
*778 _0359_
*779 _0360_
*780 _0361_
*781 _0362_
*782 _0363_
*783 _0364_
*784 _0365_
*785 _0366_
*786 _0367_
*787 _0368_
*788 _0369_
*789 _0370_
*790 _0371_
*791 _0372_
*792 _0373_
*793 _0374_
*794 _0375_
*795 _0376_
*796 _0377_
*797 _0378_
*798 _0379_
*799 _0380_
*800 _0381_
*801 _0382_
*802 _0383_
*803 _0384_
*804 _0385_
*805 _0386_
*806 _0387_
*807 _0388_
*808 _0389_
*809 _0390_
*810 _0391_
*811 _0392_
*812 _0393_
*813 _0394_
*814 _0395_
*815 _0396_
*816 _0397_
*817 _0398_
*818 _0399_
*819 _0400_
*820 _0401_
*821 _0402_
*822 _0403_
*823 _0404_
*824 _0405_
*825 _0406_
*826 _0407_
*827 _0408_
*828 _0409_
*829 _0410_
*830 _0411_
*831 _0412_
*832 _0413_
*833 _0414_
*834 _0415_
*835 _0416_
*836 _0417_
*837 _0418_
*838 _0419_
*839 _0420_
*840 _0421_
*841 _0422_
*842 _0423_
*843 _0424_
*844 _0425_
*845 _0426_
*846 _0427_
*847 _0428_
*848 _0429_
*849 _0430_
*850 _0431_
*851 _0432_
*852 _0433_
*853 _0434_
*854 _0435_
*855 _0436_
*856 _0437_
*857 _0438_
*858 _0439_
*859 _0440_
*860 _0441_
*861 _0442_
*862 _0443_
*863 _0444_
*864 _0445_
*865 _0446_
*866 _0447_
*867 _0448_
*868 _0449_
*869 _0450_
*870 _0451_
*871 _0452_
*872 _0453_
*873 _0454_
*874 _0455_
*875 _0456_
*876 _0457_
*877 _0458_
*878 _0459_
*879 _0460_
*880 _0461_
*881 _0462_
*882 _0463_
*883 _0464_
*884 _0465_
*885 _0466_
*886 _0467_
*887 _0468_
*888 _0469_
*889 _0470_
*890 _0471_
*891 _0472_
*892 _0473_
*893 _0474_
*894 _0475_
*895 _0476_
*896 _0477_
*897 _0478_
*898 _0479_
*899 _0480_
*900 _0481_
*901 _0482_
*902 _0483_
*903 _0484_
*904 _0485_
*905 _0486_
*906 _0487_
*907 _0488_
*908 _0489_
*909 _0490_
*910 _0491_
*911 _0492_
*912 _0493_
*913 _0494_
*914 _0495_
*915 _0496_
*916 _0497_
*917 _0498_
*918 _0499_
*919 _0500_
*920 _0501_
*921 _0502_
*922 _0503_
*923 _0504_
*924 _0505_
*925 _0506_
*926 _0507_
*927 _0508_
*928 _0509_
*929 _0510_
*930 _0511_
*931 _0512_
*932 _0513_
*933 _0514_
*934 _0515_
*935 _0516_
*936 _0517_
*937 _0518_
*938 _0519_
*939 _0520_
*940 _0521_
*941 _0522_
*942 _0523_
*943 _0524_
*944 _0525_
*945 _0526_
*946 _0527_
*947 _0528_
*948 _0529_
*949 _0530_
*950 _0531_
*951 _0532_
*952 _0533_
*953 _0534_
*954 _0535_
*955 _0536_
*956 _0537_
*957 _0538_
*958 _0539_
*959 _0540_
*960 _0541_
*961 _0542_
*962 _0543_
*963 _0544_
*964 _0545_
*965 _0546_
*966 _0547_
*967 _0548_
*968 _0549_
*969 _0550_
*970 _0551_
*971 _0552_
*972 _0553_
*973 _0554_
*974 _0555_
*975 _0556_
*976 _0557_
*977 _0558_
*978 _0559_
*979 _0560_
*980 _0561_
*981 _0562_
*982 _0563_
*983 _0564_
*984 _0565_
*985 _0566_
*986 _0567_
*987 _0568_
*988 _0569_
*989 _0570_
*990 _0571_
*991 _0572_
*992 _0573_
*993 _0574_
*994 _0575_
*995 _0576_
*996 _0577_
*997 _0578_
*998 _0579_
*999 _0580_
*1000 _0581_
*1001 _0582_
*1002 _0583_
*1003 _0584_
*1004 _0585_
*1005 _0586_
*1006 _0587_
*1007 _0588_
*1008 _0589_
*1009 _0590_
*1010 _0591_
*1011 _0592_
*1012 _0593_
*1013 _0594_
*1014 _0595_
*1015 _0596_
*1016 _0597_
*1017 _0598_
*1018 _0599_
*1019 _0600_
*1020 _0601_
*1021 _0602_
*1022 _0603_
*1023 _0604_
*1024 _0605_
*1025 _0606_
*1026 _0607_
*1027 _0608_
*1028 _0609_
*1029 _0610_
*1030 _0611_
*1031 _0612_
*1032 _0613_
*1033 _0614_
*1034 _0615_
*1035 _0616_
*1036 _0617_
*1037 _0618_
*1038 _0619_
*1039 _0620_
*1040 _0621_
*1041 _0622_
*1042 _0623_
*1043 _0624_
*1044 _0625_
*1045 _0626_
*1046 _0627_
*1047 _0628_
*1048 _0629_
*1049 _0630_
*1050 _0631_
*1051 _0632_
*1052 _0633_
*1053 _0634_
*1054 _0635_
*1055 _0636_
*1056 _0637_
*1057 _0638_
*1058 _0639_
*1059 _0640_
*1060 _0641_
*1061 _0642_
*1062 _0643_
*1063 _0644_
*1064 _0645_
*1065 _0646_
*1066 _0647_
*1067 _0648_
*1068 _0649_
*1069 _0650_
*1070 _0651_
*1071 _0652_
*1072 _0653_
*1073 _0654_
*1074 _0655_
*1075 _0656_
*1076 _0657_
*1077 _0658_
*1078 _0659_
*1079 _0660_
*1080 _0661_
*1081 _0662_
*1082 _0663_
*1083 _0664_
*1084 _0665_
*1085 _0666_
*1086 _0667_
*1087 _0668_
*1088 _0669_
*1089 _0670_
*1090 _0671_
*1091 _0672_
*1092 _0673_
*1093 mprj\.PS_R1_inst1\.LUT_inst1\.i0
*1094 mprj\.PS_R1_inst1\.LUT_inst1\.i1
*1095 mprj\.PS_R1_inst1\.LUT_inst1\.i3
*1096 mprj\.PS_R1_inst1\.LUT_inst1\.i4
*1097 mprj\.PS_R1_inst1\.LUT_inst10\.I0
*1098 mprj\.PS_R1_inst1\.LUT_inst10\.I1
*1099 mprj\.PS_R1_inst1\.LUT_inst11\.I1
*1100 mprj\.PS_R1_inst1\.LUT_inst12\.I1
*1101 mprj\.PS_R1_inst1\.LUT_inst13\.I1
*1102 mprj\.PS_R1_inst1\.LUT_inst14\.I1
*1103 mprj\.PS_R1_inst1\.LUT_inst15\.I1
*1104 mprj\.PS_R1_inst1\.LUT_inst2\.I1
*1105 mprj\.PS_R1_inst1\.LUT_inst3\.I1
*1106 mprj\.PS_R1_inst1\.LUT_inst4\.I1
*1107 mprj\.PS_R1_inst1\.LUT_inst5\.I1
*1108 mprj\.PS_R1_inst1\.LUT_inst6\.I1
*1109 mprj\.PS_R1_inst1\.LUT_inst7\.I1
*1110 mprj\.PS_R1_inst1\.LUT_inst8\.I1
*1111 mprj\.PS_Rx_inst2\.LUT_inst1\.i3
*1112 mprj\.PS_Rx_inst2\.LUT_inst1\.i4
*1113 mprj\.PS_Rx_inst3\.LUT_inst1\.i3
*1114 mprj\.PS_Rx_inst3\.LUT_inst1\.i4
*1115 mprj\.PS_Rx_inst4\.LUT_inst1\.i3
*1116 mprj\.PS_Rx_inst4\.LUT_inst1\.i4
*1117 mprj\.PS_Rx_inst5\.LUT_inst1\.i3
*1118 mprj\.PS_Rx_inst5\.LUT_inst1\.i4
*1119 mprj\.PS_Rx_inst6\.LUT_inst1\.i3
*1120 mprj\.PS_Rx_inst6\.LUT_inst1\.i4
*1121 mprj\.PS_Rx_inst7\.LUT_inst1\.i3
*1122 mprj\.PS_Rx_inst7\.LUT_inst1\.i4
*1123 mprj\.PS_Rx_inst8\.LUT_inst1\.i3
*1124 mprj\.PS_Rx_inst8\.LUT_inst1\.i4
*1125 mprj\.PS_Rx_inst8\.carry_inst\.O
*1126 net1
*1127 net10
*1128 net11
*1129 net12
*1130 net13
*1131 net14
*1132 net15
*1133 net16
*1134 net17
*1135 net18
*1136 net19
*1137 net2
*1138 net20
*1139 net21
*1140 net22
*1141 net23
*1142 net24
*1143 net25
*1144 net26
*1145 net27
*1146 net28
*1147 net29
*1148 net3
*1149 net30
*1150 net31
*1151 net32
*1152 net33
*1153 net34
*1154 net35
*1155 net36
*1156 net37
*1157 net38
*1158 net39
*1159 net4
*1160 net40
*1161 net41
*1162 net42
*1163 net43
*1164 net44
*1165 net45
*1166 net46
*1167 net47
*1168 net48
*1169 net49
*1170 net5
*1171 net50
*1172 net51
*1173 net52
*1174 net53
*1175 net54
*1176 net55
*1177 net56
*1178 net57
*1179 net58
*1180 net59
*1181 net6
*1182 net60
*1183 net61
*1184 net62
*1185 net63
*1186 net64
*1187 net65
*1188 net66
*1189 net67
*1190 net68
*1191 net69
*1192 net7
*1193 net70
*1194 net71
*1195 net8
*1196 net9
*1197 _0674_
*1198 _0675_
*1199 _0676_
*1200 _0677_
*1201 _0678_
*1202 _0679_
*1203 _0680_
*1204 _0681_
*1205 _0682_
*1206 _0683_
*1207 _0684_
*1208 _0685_
*1209 _0686_
*1210 _0687_
*1211 _0688_
*1212 _0689_
*1213 _0690_
*1214 _0691_
*1215 _0692_
*1216 _0693_
*1217 _0694_
*1218 _0695_
*1219 _0696_
*1220 _0697_
*1221 _0698_
*1222 _0699_
*1223 _0700_
*1224 _0701_
*1225 _0702_
*1226 _0703_
*1227 _0704_
*1228 _0705_
*1229 _0706_
*1230 _0707_
*1231 _0708_
*1232 _0709_
*1233 _0710_
*1234 _0711_
*1235 _0712_
*1236 _0713_
*1237 _0714_
*1238 _0715_
*1239 _0716_
*1240 _0717_
*1241 _0718_
*1242 _0719_
*1243 _0720_
*1244 _0721_
*1245 _0722_
*1246 _0723_
*1247 _0724_
*1248 _0725_
*1249 _0726_
*1250 _0727_
*1251 _0728_
*1252 _0729_
*1253 _0730_
*1254 _0731_
*1255 _0732_
*1256 _0733_
*1257 _0734_
*1258 _0735_
*1259 _0736_
*1260 _0737_
*1261 _0738_
*1262 _0739_
*1263 _0740_
*1264 _0741_
*1265 _0742_
*1266 _0743_
*1267 _0744_
*1268 _0745_
*1269 _0746_
*1270 _0747_
*1271 _0748_
*1272 _0749_
*1273 _0750_
*1274 _0751_
*1275 _0752_
*1276 _0753_
*1277 _0754_
*1278 _0755_
*1279 _0756_
*1280 _0757_
*1281 _0758_
*1282 _0759_
*1283 _0760_
*1284 _0761_
*1285 _0762_
*1286 _0763_
*1287 _0764_
*1288 _0765_
*1289 _0766_
*1290 _0767_
*1291 _0768_
*1292 _0769_
*1293 _0770_
*1294 _0771_
*1295 _0772_
*1296 _0773_
*1297 _0774_
*1298 _0775_
*1299 _0776_
*1300 _0777_
*1301 _0778_
*1302 _0779_
*1303 _0780_
*1304 _0781_
*1305 _0782_
*1306 _0783_
*1307 _0784_
*1308 _0785_
*1309 _0786_
*1310 _0787_
*1311 _0788_
*1312 _0789_
*1313 _0790_
*1314 _0791_
*1315 _0792_
*1316 _0793_
*1317 _0794_
*1318 _0795_
*1319 _0796_
*1320 _0797_
*1321 _0798_
*1322 _0799_
*1323 _0800_
*1324 _0801_
*1325 _0802_
*1326 _0803_
*1327 _0804_
*1328 _0805_
*1329 _0806_
*1330 _0807_
*1331 _0808_
*1332 _0809_
*1333 _0810_
*1334 _0811_
*1335 _0812_
*1336 _0813_
*1337 _0814_
*1338 _0815_
*1339 _0816_
*1340 _0817_
*1341 _0818_
*1342 _0819_
*1343 _0820_
*1344 _0821_
*1345 _0822_
*1346 _0823_
*1347 _0824_
*1348 _0825_
*1349 _0826_
*1350 _0827_
*1351 _0828_
*1352 _0829_
*1353 _0830_
*1354 _0831_
*1355 _0832_
*1356 _0833_
*1357 _0834_
*1358 _0835_
*1359 _0836_
*1360 _0837_
*1361 _0838_
*1362 _0839_
*1363 _0840_
*1364 _0841_
*1365 _0842_
*1366 _0843_
*1367 _0844_
*1368 _0845_
*1369 _0846_
*1370 _0847_
*1371 _0848_
*1372 _0849_
*1373 _0850_
*1374 _0851_
*1375 _0852_
*1376 _0853_
*1377 _0854_
*1378 _0855_
*1379 _0856_
*1380 _0857_
*1381 _0858_
*1382 _0859_
*1383 _0860_
*1384 _0861_
*1385 _0862_
*1386 _0863_
*1387 _0864_
*1388 _0865_
*1389 _0866_
*1390 _0867_
*1391 _0868_
*1392 _0869_
*1393 _0870_
*1394 _0871_
*1395 _0872_
*1396 _0873_
*1397 _0874_
*1398 _0875_
*1399 _0876_
*1400 _0877_
*1401 _0878_
*1402 _0879_
*1403 _0880_
*1404 _0881_
*1405 _0882_
*1406 _0883_
*1407 _0884_
*1408 _0885_
*1409 _0886_
*1410 _0887_
*1411 _0888_
*1412 _0889_
*1413 _0890_
*1414 _0891_
*1415 _0892_
*1416 _0893_
*1417 _0894_
*1418 _0895_
*1419 _0896_
*1420 _0897_
*1421 _0898_
*1422 _0899_
*1423 _0900_
*1424 _0901_
*1425 _0902_
*1426 _0903_
*1427 _0904_
*1428 _0905_
*1429 _0906_
*1430 _0907_
*1431 _0908_
*1432 _0909_
*1433 _0910_
*1434 _0911_
*1435 _0912_
*1436 _0913_
*1437 _0914_
*1438 _0915_
*1439 _0916_
*1440 _0917_
*1441 _0918_
*1442 _0919_
*1443 _0920_
*1444 _0921_
*1445 _0922_
*1446 _0923_
*1447 _0924_
*1448 _0925_
*1449 _0926_
*1450 _0927_
*1451 _0928_
*1452 _0929_
*1453 _0930_
*1454 _0931_
*1455 _0932_
*1456 _0933_
*1457 _0934_
*1458 _0935_
*1459 _0936_
*1460 _0937_
*1461 _0938_
*1462 _0939_
*1463 _0940_
*1464 _0941_
*1465 _0942_
*1466 _0943_
*1467 _0944_
*1468 _0945_
*1469 _0946_
*1470 _0947_
*1471 _0948_
*1472 _0949_
*1473 _0950_
*1474 _0951_
*1475 _0952_
*1476 _0953_
*1477 _0954_
*1478 _0955_
*1479 _0956_
*1480 _0957_
*1481 _0958_
*1482 _0959_
*1483 _0960_
*1484 _0961_
*1485 _0962_
*1486 _0963_
*1487 _0964_
*1488 _0965_
*1489 _0966_
*1490 _0967_
*1491 _0968_
*1492 _0969_
*1493 _0970_
*1494 _0971_
*1495 _0972_
*1496 _0973_
*1497 _0974_
*1498 _0975_
*1499 _0976_
*1500 _0977_
*1501 _0978_
*1502 _0979_
*1503 _0980_
*1504 _0981_
*1505 _0982_
*1506 _0983_
*1507 _0984_
*1508 _0985_
*1509 _0986_
*1510 _0987_
*1511 _0988_
*1512 _0989_
*1513 _0990_
*1514 _0991_
*1515 _0992_
*1516 _0993_
*1517 _0994_
*1518 _0995_
*1519 _0996_
*1520 _0997_
*1521 _0998_
*1522 _0999_
*1523 _1000_
*1524 _1001_
*1525 _1002_
*1526 _1003_
*1527 _1004_
*1528 _1005_
*1529 _1006_
*1530 _1007_
*1531 _1008_
*1532 _1009_
*1533 _1010_
*1534 _1011_
*1535 _1012_
*1536 _1013_
*1537 _1014_
*1538 _1015_
*1539 _1016_
*1540 _1017_
*1541 _1018_
*1542 _1019_
*1543 _1020_
*1544 _1021_
*1545 _1022_
*1546 _1023_
*1547 _1024_
*1548 _1025_
*1549 _1026_
*1550 _1027_
*1551 _1028_
*1552 _1029_
*1553 _1030_
*1554 _1031_
*1555 _1032_
*1556 _1033_
*1557 _1034_
*1558 _1035_
*1559 _1036_
*1560 _1037_
*1561 _1038_
*1562 _1039_
*1563 _1040_
*1564 _1041_
*1565 _1042_
*1566 _1043_
*1567 _1044_
*1568 _1045_
*1569 _1046_
*1570 _1047_
*1571 _1048_
*1572 _1049_
*1573 _1050_
*1574 _1051_
*1575 _1052_
*1576 _1053_
*1577 _1054_
*1578 _1055_
*1579 _1056_
*1580 _1057_
*1581 _1058_
*1582 _1059_
*1583 _1060_
*1584 _1061_
*1585 _1062_
*1586 _1063_
*1587 _1064_
*1588 _1065_
*1589 _1066_
*1590 _1067_
*1591 _1068_
*1592 _1069_
*1593 _1070_
*1594 _1071_
*1595 _1072_
*1596 _1073_
*1597 _1074_
*1598 _1075_
*1599 _1076_
*1600 _1077_
*1601 _1078_
*1602 _1079_
*1603 _1080_
*1604 _1081_
*1605 _1082_
*1606 _1083_
*1607 _1084_
*1608 _1085_
*1609 _1086_
*1610 _1087_
*1611 _1088_
*1612 _1089_
*1613 _1090_
*1614 _1091_
*1615 _1092_
*1616 _1093_
*1617 _1094_
*1618 _1095_
*1619 _1096_
*1620 _1097_
*1621 _1098_
*1622 _1099_
*1623 _1100_
*1624 _1101_
*1625 _1102_
*1626 _1103_
*1627 _1104_
*1628 _1105_
*1629 _1106_
*1630 _1107_
*1631 _1108_
*1632 _1109_
*1633 _1110_
*1634 _1111_
*1635 _1112_
*1636 _1113_
*1637 _1114_
*1638 _1115_
*1639 _1116_
*1640 _1117_
*1641 _1118_
*1642 _1119_
*1643 _1120_
*1644 _1121_
*1645 _1122_
*1646 _1123_
*1647 _1124_
*1648 _1125_
*1649 _1126_
*1650 _1127_
*1651 _1128_
*1652 _1129_
*1653 _1130_
*1654 _1131_
*1655 _1132_
*1656 _1133_
*1657 _1134_
*1658 _1135_
*1659 _1136_
*1660 _1137_
*1661 _1138_
*1662 _1139_
*1663 _1140_
*1664 _1141_
*1665 _1142_
*1666 _1143_
*1667 _1144_
*1668 _1145_
*1669 _1146_
*1670 _1147_
*1671 _1148_
*1672 _1149_
*1673 _1150_
*1674 _1151_
*1675 _1152_
*1676 _1153_
*1677 _1154_
*1678 _1155_
*1679 _1156_
*1680 _1157_
*1681 _1158_
*1682 _1159_
*1683 _1160_
*1684 _1161_
*1685 _1162_
*1686 _1163_
*1687 _1164_
*1688 _1165_
*1689 _1166_
*1690 _1167_
*1691 _1168_
*1692 _1169_
*1693 _1170_
*1694 _1171_
*1695 _1172_
*1696 _1173_
*1697 _1174_
*1698 _1175_
*1699 _1176_
*1700 _1177_
*1701 _1178_
*1702 _1179_
*1703 _1180_
*1704 _1181_
*1705 _1182_
*1706 _1183_
*1707 _1184_
*1708 _1185_
*1709 _1186_
*1710 _1187_
*1711 _1188_
*1712 _1189_
*1713 _1190_
*1714 _1191_
*1715 _1192_
*1716 _1193_
*1717 _1194_
*1718 _1195_
*1719 _1196_
*1720 _1197_
*1721 _1198_
*1722 _1199_
*1723 _1200_
*1724 _1201_
*1725 _1202_
*1726 _1203_
*1727 _1204_
*1728 _1205_
*1729 _1206_
*1730 _1207_
*1731 _1208_
*1732 _1209_
*1733 _1210_
*1734 _1211_
*1735 _1212_
*1736 _1213_
*1737 _1214_
*1738 _1215_
*1739 _1216_
*1740 _1217_
*1741 _1218_
*1742 _1219_
*1743 _1220_
*1744 _1221_
*1745 _1222_
*1746 _1223_
*1747 _1224_
*1748 _1225_
*1749 _1226_
*1750 _1227_
*1751 _1228_
*1752 _1229_
*1753 _1230_
*1754 _1231_
*1755 _1232_
*1756 _1233_
*1757 _1234_
*1758 _1235_
*1759 _1236_
*1760 _1237_
*1761 _1238_
*1762 _1239_
*1763 _1240_
*1764 _1241_
*1765 _1242_
*1766 _1243_
*1767 _1244_
*1768 _1245_
*1769 _1246_
*1770 _1247_
*1771 _1248_
*1772 _1249_
*1773 _1250_
*1774 _1251_
*1775 _1252_
*1776 _1253_
*1777 _1254_
*1778 _1255_
*1779 _1256_
*1780 _1257_
*1781 _1258_
*1782 _1259_
*1783 _1260_
*1784 _1261_
*1785 _1262_
*1786 _1263_
*1787 _1264_
*1788 _1265_
*1789 _1266_
*1790 _1267_
*1791 _1268_
*1792 _1269_
*1793 _1270_
*1794 _1271_
*1795 _1272_
*1796 _1273_
*1797 _1274_
*1798 _1275_
*1799 _1276_
*1800 _1277_
*1801 _1278_
*1802 _1279_
*1803 _1280_
*1804 _1281_
*1805 _1282_
*1806 _1283_
*1807 _1284_
*1808 _1285_
*1809 _1286_
*1810 _1287_
*1811 _1288_
*1812 _1289_
*1813 _1290_
*1814 _1291_
*1815 _1292_
*1816 _1293_
*1817 _1294_
*1818 _1295_
*1819 _1296_
*1820 _1297_
*1821 _1298_
*1822 _1299_
*1823 _1300_
*1824 _1301_
*1825 _1302_
*1826 _1303_
*1827 _1304_
*1828 _1305_
*1829 _1306_
*1830 _1307_
*1831 _1308_
*1832 _1309_
*1833 _1310_
*1834 _1311_
*1835 _1312_
*1836 _1313_
*1837 _1314_
*1838 _1315_
*1839 _1316_
*1840 _1317_
*1841 _1318_
*1842 _1319_
*1843 _1320_
*1844 _1321_
*1845 _1322_
*1846 _1323_
*1847 _1324_
*1848 _1325_
*1849 _1326_
*1850 _1327_
*1851 _1328_
*1852 _1329_
*1853 _1330_
*1854 _1331_
*1855 _1332_
*1856 _1333_
*1857 _1334_
*1858 _1335_
*1859 _1336_
*1860 _1337_
*1861 _1338_
*1862 _1339_
*1863 _1340_
*1864 _1341_
*1865 _1342_
*1866 _1343_
*1867 _1344_
*1868 _1345_
*1869 _1346_
*1870 _1347_
*1871 _1348_
*1872 _1349_
*1873 _1350_
*1874 _1351_
*1875 _1352_
*1876 _1353_
*1877 _1354_
*1878 _1355_
*1879 _1356_
*1880 _1357_
*1881 _1358_
*1882 _1359_
*1883 _1360_
*1884 _1361_
*1885 _1362_
*1886 _1363_
*1887 _1364_
*1888 _1365_
*1889 _1366_
*1890 _1367_
*1891 _1368_
*1892 _1369_
*1893 _1370_
*1894 _1371_
*1895 _1372_
*1896 _1373_
*1897 _1374_
*1898 _1375_
*1899 _1376_
*1900 _1377_
*1901 _1378_
*1902 _1379_
*1903 _1380_
*1904 _1381_
*1905 _1382_
*1906 _1383_
*1907 _1384_
*1908 _1385_
*1909 _1386_
*1910 _1387_
*1911 _1388_
*1912 _1389_
*1913 _1390_
*1914 _1391_
*1915 _1392_
*1916 _1393_
*1917 _1394_
*1918 _1395_
*1919 _1396_
*1920 _1397_
*1921 _1398_
*1922 _1399_
*1923 _1400_
*1924 _1401_
*1925 _1402_
*1926 _1403_
*1927 _1404_
*1928 _1405_
*1929 _1406_
*1930 _1407_
*1931 _1408_
*1932 _1409_
*1933 _1410_
*1934 _1411_
*1935 _1412_
*1936 _1413_
*1937 _1414_
*1938 _1415_
*1939 _1416_
*1940 fanout68
*1941 fanout69
*1942 fanout70
*1943 fanout71
*1944 input1
*1945 input10
*1946 input11
*1947 input12
*1948 input13
*1949 input14
*1950 input15
*1951 input16
*1952 input17
*1953 input18
*1954 input19
*1955 input2
*1956 input20
*1957 input21
*1958 input22
*1959 input23
*1960 input24
*1961 input25
*1962 input26
*1963 input27
*1964 input28
*1965 input29
*1966 input3
*1967 input30
*1968 input31
*1969 input4
*1970 input5
*1971 input6
*1972 input7
*1973 input8
*1974 input9
*1975 output32
*1976 output33
*1977 output34
*1978 output35
*1979 output36
*1980 output37
*1981 output38
*1982 output39
*1983 output40
*1984 output41
*1985 output42
*1986 output43
*1987 output44
*1988 output45
*1989 output46
*1990 output47
*1991 output48
*1992 output49
*1993 output50
*1994 output51
*1995 output52
*1996 output53
*1997 output54
*1998 output55
*1999 output56
*2000 output57
*2001 output58
*2002 output59
*2003 output60
*2004 output61
*2005 output62
*2006 output63
*2007 output64
*2008 output65
*2009 output66
*2010 output67
*2011 user_project_wrapper_100
*2012 user_project_wrapper_101
*2013 user_project_wrapper_102
*2014 user_project_wrapper_103
*2015 user_project_wrapper_104
*2016 user_project_wrapper_105
*2017 user_project_wrapper_106
*2018 user_project_wrapper_107
*2019 user_project_wrapper_108
*2020 user_project_wrapper_109
*2021 user_project_wrapper_110
*2022 user_project_wrapper_111
*2023 user_project_wrapper_112
*2024 user_project_wrapper_113
*2025 user_project_wrapper_114
*2026 user_project_wrapper_115
*2027 user_project_wrapper_116
*2028 user_project_wrapper_117
*2029 user_project_wrapper_118
*2030 user_project_wrapper_119
*2031 user_project_wrapper_120
*2032 user_project_wrapper_121
*2033 user_project_wrapper_122
*2034 user_project_wrapper_123
*2035 user_project_wrapper_124
*2036 user_project_wrapper_125
*2037 user_project_wrapper_126
*2038 user_project_wrapper_127
*2039 user_project_wrapper_128
*2040 user_project_wrapper_129
*2041 user_project_wrapper_130
*2042 user_project_wrapper_131
*2043 user_project_wrapper_132
*2044 user_project_wrapper_133
*2045 user_project_wrapper_134
*2046 user_project_wrapper_135
*2047 user_project_wrapper_136
*2048 user_project_wrapper_137
*2049 user_project_wrapper_138
*2050 user_project_wrapper_139
*2051 user_project_wrapper_140
*2052 user_project_wrapper_141
*2053 user_project_wrapper_142
*2054 user_project_wrapper_143
*2055 user_project_wrapper_144
*2056 user_project_wrapper_145
*2057 user_project_wrapper_146
*2058 user_project_wrapper_147
*2059 user_project_wrapper_148
*2060 user_project_wrapper_149
*2061 user_project_wrapper_150
*2062 user_project_wrapper_151
*2063 user_project_wrapper_152
*2064 user_project_wrapper_153
*2065 user_project_wrapper_154
*2066 user_project_wrapper_155
*2067 user_project_wrapper_156
*2068 user_project_wrapper_157
*2069 user_project_wrapper_158
*2070 user_project_wrapper_159
*2071 user_project_wrapper_160
*2072 user_project_wrapper_161
*2073 user_project_wrapper_162
*2074 user_project_wrapper_163
*2075 user_project_wrapper_164
*2076 user_project_wrapper_165
*2077 user_project_wrapper_166
*2078 user_project_wrapper_167
*2079 user_project_wrapper_168
*2080 user_project_wrapper_169
*2081 user_project_wrapper_170